src/tests/data/grids/shortcircuit_sp.dgs
********************************************************************************
*
* DIgSILENT (R) DGS Export V1.8.4
* Copyright (C) DIgSILENT GmbH 2026. All rights reserved.
*
* DIgSILENT (C) PowerFactory V24.0.10.0
*
* Date:     07/11/2026 12:58
* Project:  SP_ShortCircuit (Study Case: Y01 (2024/25))
*
********************************************************************************


$$General;FID(a:40);Descr(a:40);Val(a:255)
  1;Version;7.0


$$ChaRef;FID(a:40);OP(a:1);loc_name(a:80);fold_id(p)
  2;C;sline;16091
  3;C;ContRating;
  4;C;ContRating;


$$ChaVec;FID(a:40);OP(a:1);loc_name(a:80);fold_id(p);scale(p);usage(i);approx(i);vector:SIZEROW(i);vector:0(r);vector:1(r);vector:2(r)
  5;C;sline;16085;;0;0;3;100;90.90909091;90.90909091
  6;C;sline;16087;;0;0;3;100;88.66667;88.66667
  7;C;sline;16102;;0;0;3;100;87.78195;87.78195
  8;C;sline;16103;;0;0;3;100;90.506;90.506
  9;C;sline;16106;;2;0;3;0.651;0.574;0.574
  10;C;sline;16110;;0;0;3;100;100;81.0458
  11;C;sline;16111;;0;0;3;100;89.7029703;82.17821782
  12;C;sline;16112;;0;0;3;100;100;100
  13;C;sline;16022;;0;0;3;100;95.05;86.81
  14;C;sline;16023;;0;0;3;100;93.1;80.17
  15;C;sline;16024;;0;0;3;100;95.74;87.23
  16;C;sline;16025;;0;0;3;100;93.94;84.85
  17;C;sline;16026;;0;0;3;100;93.1;80.17
  18;C;sline;16027;;0;0;3;100;95.89;88.36
  19;C;sline;16028;;0;0;3;100;93.22;81.36
  20;C;sline;16029;;0;0;3;100;92.31;77.62
  21;C;sline;16030;;2;0;3;0.93;0.885;0.81
  22;C;sline;16031;;0;0;3;100;92.5;80
  23;C;sline;16032;;0;0;3;100;92.31;80.29
  24;C;sline;16033;;0;0;3;100;95.42;87.02
  25;C;sline;16034;;0;0;3;100;95.8;89.5
  26;C;sline;16035;;0;0;3;100;92.4;80.12
  27;C;sline;16036;;0;0;3;100;92.31;79.88
  28;C;sline;16037;;0;0;3;100;95.76;88.28
  29;C;sline;16038;;0;0;3;100;92.6;80
  30;C;sline;16039;;0;0;3;100;92.5;80
  31;C;sline;16040;;0;0;3;100;95.2381;86.90476
  32;C;sline;16041;;0;0;3;100;95.2381;86.90476
  33;C;sline;16042;;2;0;3;2.45;2.42;2.36
  34;C;sline;16043;;0;0;3;100;98.5;96.01
  35;C;sline;16044;;0;0;3;100;98.21;95.54
  36;C;sline;16045;;0;0;3;100;95.17;86.9
  37;C;sline;16046;;0;0;3;100;95.17;86.9
  38;C;sline;16047;;0;0;3;100;91.98;79.25
  39;C;sline;16048;;0;0;3;100;95.2;87.2
  40;C;sline;16049;;0;0;3;100;96.53;89.53
  41;C;sline;16050;;0;0;3;100;92.5;80
  42;C;sline;16051;;0;0;3;100;92.5;80
  43;C;sline;16052;;0;0;3;100;93.91;84.35
  44;C;sline;16055;;2;0;3;6;5.79;5.37
  45;C;sline;16056;;0;0;3;100;95.05;86.81
  46;C;sline;16057;;0;0;3;100;95.24;86.39
  47;C;sline;16058;;2;0;3;3.19;3.07;2.86
  48;C;sline;16059;;0;0;3;100;96.53;89.58
  49;C;sline;16060;;0;0;3;100;96.53;89.53
  50;C;sline;16061;;0;0;3;100;96.53;89.53
  51;C;sline;16062;;0;0;3;100;95.93;87.8
  52;C;sline;16063;;0;0;3;100;92.5;80
  53;C;sline;16064;;0;0;3;100;95.93;87.8
  54;C;sline;16180;;0;0;3;100;100;100
  55;C;ContRating;;;0;0;3;100;92.85714;80.35713
  56;C;ContRating;;;2;0;3;1120;1060;990
  57;C;ContRating;;;2;0;3;36;34.1;34.1
  58;C;ContRating;;;2;0;3;40;37.7;37.7
  59;C;ContRating;;;2;0;3;1050;965;880
  60;C;ContRating;;;2;0;3;1120;1060;990
  61;C;ContRating;;;2;0;3;134;123;123
  62;C;ContRating;;;2;0;3;200;185;175
  63;C;ContRating;;;2;0;3;242;223;192
  64;C;ContRating;;;2;0;3;293;293;293
  65;C;ContRating;;;2;0;3;240;240;240
  66;C;ContRating;;;2;0;3;53;53;53
  67;C;ContRating;;;2;0;3;41;40;40
  68;C;ContRating;;;2;0;3;34;32;28
  69;C;ContRating;;;2;0;3;49;45;39
  70;C;ContRating;;;2;0;3;1444;1444;1444
  71;C;ContRating;;;2;0;3;2770;2770;2770
  72;C;ContRating;;;2;0;3;132;123;106
  73;C;ContRating;;;2;0;3;1500;1500;1500
  74;C;ContRating;;;2;0;3;2570;2570;2508
  75;C;ContRating;;;2;0;3;722;647;593
  76;C;ContRating;;;2;0;3;224;191;191
  77;C;ContRating;;;2;0;3;44.98;38.64;38.64
  78;C;ContRating;;;2;0;3;1500;1500;1500
  79;C;ContRating;;;2;0;3;30;30;30
  80;C;ContRating;;;2;0;3;2030;1930;1770
  81;C;ContRating;;;2;0;3;352;290;290
  82;C;ContRating;;;2;0;3;1500;1500;1500
  83;C;ContRating;;;2;0;3;240;240;240
  84;C;ContRating;;;2;0;3;500;500;500
  85;C;ContRating;;;2;0;3;37;36;36
  86;C;ContRating;;;2;0;3;2210;2130;1980
  87;C;ContRating;;;2;0;3;935;785;785
  88;C;ContRating;;;2;0;3;900;760;760
  89;C;ContRating;;;2;0;3;2000;1920;1790
  90;C;ContRating;;;2;0;3;38;38;38
  91;C;ContRating;;;2;0;3;214;195;195
  92;C;ContRating;;;2;0;3;38;38;38
  93;C;ContRating;;;2;0;3;140;124;124
  94;C;ContRating;;;2;0;3;132;123;106
  95;C;ContRating;;;2;0;3;132;123;106
  96;C;ContRating;;;2;0;3;132;123;106
  97;C;ContRating;;;2;0;3;167;160;147
  98;C;ContRating;;;2;0;3;1120;1060;990
  99;C;ContRating;;;2;0;3;760;620;620
  100;C;ContRating;;;2;0;3;1120;1060;990
  101;C;ContRating;;;2;0;3;38;38;38
  102;C;ContRating;;;2;0;3;38;38;38
  103;C;ContRating;;;2;0;3;570;570;570
  104;C;ContRating;;;2;0;3;140;140;140
  105;C;ContRating;;;2;0;3;140;140;140
  106;C;ContRating;;;2;0;3;1190;1190;1190
  107;C;ContRating;;;2;0;3;955;955;955
  108;C;ContRating;;;2;0;3;171;152;152
  109;C;ContRating;;;2;0;3;146;146;146
  110;C;ContRating;;;2;0;3;171;152;152
  111;C;ContRating;;;2;0;3;146;146;146
  112;C;ContRating;;;2;0;3;114;114;114
  113;C;ContRating;;;2;0;3;114;114;114
  114;C;ContRating;;;2;0;3;132;123;106
  115;C;ContRating;;;2;0;3;132;123;106
  116;C;ContRating;;;2;0;3;24;20;16
  117;C;ContRating;;;2;0;3;418;386;386
  118;C;ContRating;;;2;0;3;466;430;418
  119;C;ContRating;;;2;0;3;30.6;30.6;30.6
  120;C;ContRating;;;2;0;3;161;154;140
  121;C;ContRating;;;2;0;3;135;135;135
  122;C;ContRating;;;2;0;3;135;135;135
  123;C;ContRating;;;2;0;3;240;234;202
  124;C;ContRating;;;2;0;3;40;40;40
  125;C;ContRating;;;2;0;3;23;19;19
  126;C;ContRating;;;2;0;3;23;19;19
  127;C;ContRating;;;2;0;3;1000;1000;1000
  128;C;ContRating;;;2;0;3;1000;1000;1000
  129;C;ContRating;;;2;0;3;1000;1000;1000
  130;C;ContRating;;;2;0;3;1000;1000;1000
  131;C;ContRating;;;2;0;3;250;250;250
  132;C;ContRating;;;2;0;3;125;113;110
  133;C;ContRating;;;2;0;3;125;113;110
  134;C;ContRating;;;2;0;3;268;268;268
  135;C;ContRating;;;2;0;3;121;110;106
  136;C;ContRating;;;2;0;3;102;79;79
  137;C;ContRating;;;2;0;3;274;274;274
  138;C;ContRating;;;2;0;3;132;123;106
  139;C;ContRating;;;2;0;3;132;123;106
  140;C;ContRating;;;2;0;3;276;240;240
  141;C;ContRating;;;2;0;3;276;240;240
  142;C;ContRating;;;2;0;3;132;123;106
  143;C;ContRating;;;2;0;3;40;40;38
  144;C;ContRating;;;2;0;3;122;107;107
  145;C;ContRating;;;2;0;3;122;107;107
  146;C;ContRating;;;2;0;3;171;155;155
  147;C;ContRating;;;2;0;3;171;155;155
  148;C;ContRating;;;2;0;3;18;18;18
  149;C;ContRating;;;2;0;3;21;21;21
  150;C;ContRating;;;2;0;3;132;123;106
  151;C;ContRating;;;2;0;3;132;123;106
  152;C;ContRating;;;2;0;3;132;123;106
  153;C;ContRating;;;2;0;3;43;43;43
  154;C;ContRating;;;2;0;3;40;40;40
  155;C;ContRating;;;2;0;3;40;40;40
  156;C;ContRating;;;2;0;3;186;186;186
  157;C;ContRating;;;2;0;3;186;186;186
  158;C;ContRating;;;2;0;3;750;690;630
  159;C;ContRating;;;2;0;3;695;560;500
  160;C;ContRating;;;2;0;3;1500;1500;1500
  161;C;ContRating;;;2;0;3;1120;1060;990
  162;C;ContRating;;;2;0;3;1120;1060;990
  163;C;ContRating;;;2;0;3;1500;1500;1500
  164;C;ContRating;;;2;0;3;476;415;415
  165;C;ContRating;;;2;0;3;291;245;245
  166;C;ContRating;;;2;0;3;211;190;190
  167;C;ContRating;;;2;0;3;210;210;210
  168;C;ContRating;;;2;0;3;194;180;180
  169;C;ContRating;;;2;0;3;266;266;266
  170;C;ContRating;;;2;0;3;134;123;123
  171;C;ContRating;;;2;0;3;158;146;146
  172;C;ContRating;;;2;0;3;176;156;156
  173;C;ContRating;;;2;0;3;176;156;156
  174;C;ContRating;;;2;0;3;1120;1060;990
  175;C;ContRating;;;2;0;3;1120;1060;990
  176;C;ContRating;;;2;0;3;132;123;106
  177;C;ContRating;;;2;0;3;132;123;106
  178;C;ContRating;;;2;0;3;1490;1430;1320
  179;C;ContRating;;;2;0;3;229;211;183
  180;C;ContRating;;;2;0;3;229;211;183
  181;C;ContRating;;;2;0;3;570;570;570
  182;C;ContRating;;;2;0;3;283;283;283
  183;C;ContRating;;;2;0;3;155;155;155
  184;C;ContRating;;;2;0;3;38;38;38
  185;C;ContRating;;;2;0;3;38;38;38
  186;C;ContRating;;;2;0;3;38;38;38
  187;C;ContRating;;;2;0;3;2470;2350;2150
  188;C;ContRating;;;2;0;3;2473;2349;2148
  189;C;ContRating;;;2;0;3;242;242;242
  190;C;ContRating;;;2;0;3;143;142;128
  191;C;ContRating;;;2;0;3;143;142;128
  192;C;ContRating;;;2;0;3;111;100;92
  193;C;ContRating;;;2;0;3;111;100;92
  194;C;ContRating;;;2;0;3;1090;1030;920
  195;C;ContRating;;;2;0;3;1090;1030;925
  196;C;ContRating;;;2;0;3;180;180;180
  197;C;ContRating;;;2;0;3;180;180;180
  198;C;ContRating;;;2;0;3;181;164;164
  199;C;ContRating;;;2;0;3;181;164;164
  200;C;ContRating;;;2;0;3;40;40;40
  201;C;ContRating;;;2;0;3;955;885;760
  202;C;ContRating;;;2;0;3;955;885;760
  203;C;ContRating;;;2;0;3;107;107;101
  204;C;ContRating;;;2;0;3;107;107;101
...


$$ElmAsm;FID(a:40);OP(a:1);loc_name(a:80);fold_id(p);typ_id(p);ngnum(i);i_mot(i);pgini(r);outserv(i);idfig(i);bustp(a:4);qgini(r);cCategory(a);pmode(i)
  379;C;WTG_BLKL0A;3091;16020;1;0;23.6;0;0;AS;-1.520593;Wind;0
  380;C;WTG_BLKL0B;3091;16021;1;0;23.6;0;0;AS;-1.520593;Wind;0
  381;C;WTG_BOWB0A;3091;16018;1;0;6.3;0;0;AS;0;Wind;0
  382;C;WTG_BOWB0B;3091;16018;1;0;6.3;0;0;AS;0;Wind;0
  383;C;WTG_HADH0G;3091;16019;1;0;40;0;0;AS;-1.520593;Wind;0


$$ElmBranch;FID(a:40);OP(a:1);loc_name(a:80);fold_id(p);iDatCon0(i);iDatCon1(i)
  384;C;br_AIRI3-_NETS3-_1;3091;1;1
  385;C;br_AREC1-_MAHI1-_1;3091;0;1
  386;C;br_AREC3-_GLAP3-_1;3091;1;0
  387;C;br_AURO3-_LINM3-_1;3091;1;1
  388;C;br_BAGA1Q_BONN1-_1;3091;0;1
  389;C;br_BAGA1Q_DRCR1Q_1;3091;0;1
  390;C;br_BAGA1R_BONN1-_1;3091;0;1
  391;C;br_BAGA1R_DRCR1R_1;3091;0;1
  392;C;br_BAIN1Q_BONN1-_1;3091;0;1
  393;C;br_BAIN1R_BONN1-_1;3091;0;1
  394;C;br_BERW1Q_ECCL1-_1;3091;0;1
  395;C;br_BERW1R_ECCL1-_1;3091;0;1
  396;C;br_BLAH1-_GLGL1Q_1;3091;0;1
  397;C;br_BLAH1-_GLGL1R_1;3091;0;1
  398;C;br_BLCW1-_NECU1Q_1;3091;0;1
  399;C;br_BLKL1-_WISH1-_1;3091;0;1
  400;C;br_BLLX1-_LINM1Q_1;3091;0;1
  401;C;br_BONB2J_DENN2-_1;3091;0;1
  402;C;br_BONB4-_DENN4-_1;3091;0;1
  403;C;br_BONN1-_DENN1-_1;3091;0;1
  404;C;br_BONN1-_STIR1S_1;3091;0;1
  405;C;br_BONN1-_STIR1T_1;3091;0;1
  406;C;br_BONN2A_DENN2-_1;3091;0;1
  407;C;br_BONN2B_DENN2-_1;3091;0;1
  408;C;br_BOWB31_KAIM3-_1;3091;0;0
  409;C;br_BOWB32_KAIM3-_1;3091;0;0
  410;C;br_BRAP1-_ERSK1Q_1;3091;1;1
  411;C;br_BRAP1-_ERSK1R_1;3091;0;1
  412;C;br_BRAP1-_GOVA1R_1;3091;1;1
  413;C;br_BRAP1-_PAIS1R_1;3091;0;1
  414;C;br_BUSB2-_STHA2A_1;3091;0;1
  415;C;br_CCSS1-_GAWH1Q_1;3091;0;1
  416;C;br_CHAP1-_DUMF1-_1;3091;1;1
  417;C;br_CHAP1-_DUMF1-_2;3091;0;1
  418;C;br_CHAP1-_ECCF1J_1;3091;0;1
  419;C;br_CHAP1-_ECCF1K_1;3091;0;1
  420;C;br_CHAP1-_GRNA1-_1;3091;0;1
  421;C;br_CHAP1-_GRNA1-_2;3091;0;1
  422;C;br_CHAP3-_SOLW3-_1;3091;0;1
  423;C;br_CLYM2-_DALM2R_1;3091;1;1
  424;C;br_CLYM2-_LOAN2-_1;3091;0;1
  425;C;br_COAL1-_CCSS1-_1;3091;0;1
  426;C;br_COAL1-_KYPE1-_1;3091;0;1
  427;C;br_COAL1-_LINM1R_1;3091;0;1
  428;C;br_COAL1-_MIDM1-_1;3091;0;1
  429;C;br_COAL1A_KENN1-_1;3091;0;0
  430;C;br_COAT2Q_NEAR2Q_1;3091;0;1
  431;C;br_COAT2R_NEAR2R_1;3091;0;1
  432;C;br_COCK2-_KAIM2-_1;3091;0;0
  433;C;br_COYL1-_COYT1T_1;3091;0;1
  434;C;br_COYL1-_MAYT1T_1;3091;0;1
  435;C;br_COYL2-_COYW2S_1;3091;0;0
  436;C;br_COYT1T_KILS1-_1;3091;0;1
  437;C;br_COYT1T_MAYB1-_1;3091;0;0
  438;C;br_COYW2S_KILS2-_1;3091;0;1
  439;C;br_COYW2T_KILS2-_1;3091;0;1
  440;C;br_CRDY3A_EWEH3-_1;3091;0;1
  441;C;br_CRDY3B_EWEH3-_1;3091;0;0
  442;C;br_CROO1Q_NEIL1-_1;3091;0;1
  443;C;br_CROO1R_NEIL1-_1;3091;0;1
  444;C;br_CRUA2Q_DALL2-_1;3091;0;1
  445;C;br_CRUA2R_DALL2-_1;3091;0;1
  446;C;br_CRYR4-_TORN4-_1;3091;0;1
  447;C;br_CURR1A_GORG1Q_1;3091;0;1
  448;C;br_CURR1A_LING1Q_1;3091;0;1
  449;C;br_CURR1B_GORG1R_1;3091;0;1
  450;C;br_CURR1B_LING1R_1;3091;0;1
  451;C;br_CURR2-_GRMO2-_1;3091;0;1
  452;C;br_CURR2-_KINC2-_1;3091;0;1
  453;C;br_CURR2-_SIGH2Q_1;3091;0;1
  454;C;br_CURR2-_SIGH2R_1;3091;0;1
  455;C;br_DALL2-_WIYH2-_1;3091;0;1
  456;C;br_DENN2-_LOAN2-_1;3091;0;1
  457;C;br_DENN2-_LOAN2-_2;3091;0;1
  458;C;br_DESA1Q_NECU1-_1;3091;0;1
  459;C;br_DEVM4-_NEIL4R_1;3091;1;1
  460;C;br_DEVM4-_WIYH4Q_1;3091;0;1
  461;C;br_DEVO1-_STIR1T_1;3091;1;0
  462;C;br_DOWE3-_LINM3-_1;3091;0;1
  463;C;br_DOWE3-_LINM3-_2;3091;0;1
  464;C;br_DRUM2Q_WIYH2-_1;3091;0;0
  465;C;br_DUNB1Q_INWI1Q_1;3091;0;1
  466;C;br_DUNB1R_INWI1R_1;3091;0;1
  467;C;br_DUNE1-_SMEA1-_1;3091;0;0
  468;C;br_DUNF1Q_INKE1Q_1;3091;0;1
  469;C;br_DUNF1R_INKE1R_1;3091;0;1
  470;C;br_ECCL1-_GALA1-_1;3091;1;0
  471;C;br_ECCL1-_GALA1-_2;3091;1;0
  472;C;br_ECCL4A_TORN4-_1;3091;0;1
  473;C;br_ECCL4B_TORN4-_1;3091;0;1
  474;C;br_EERH2-_LOAN2-_1;3091;0;1
  475;C;br_EKIL2R_EKIL2T_1;3091;1;1
  476;C;br_EKIS2-_NEIL2-_1;3091;1;1
  477;C;br_EKIS2-_STHA2B_1;3091;0;1
  478;C;br_ELDE1Q_NEIL1-_1;3091;0;1
  479;C;br_ELDE1R_NEIL1-_1;3091;0;1
  480;C;br_ELVA4-_GRNA4C_1;3091;0;1
  481;C;br_ELVA4-_STHA4A_1;3091;1;1
  482;C;br_EWEH1Q_GRNA1-_1;3091;0;1
  483;C;br_GARB1Q_HELE1-_1;3091;0;1
  484;C;br_GARB1R_STLE1-_1;3091;0;1
  485;C;br_GARE1S_WIYH1-_1;3091;0;1
  486;C;br_GARE1T_WIYH1-_1;3091;0;1
  487;C;br_GLLE1-_KEOO1-_1;3091;1;0
  488;C;br_GLNI1-_MOSM1-_1;3091;0;1
  489;C;br_GLNI1-_MOSM1-_2;3091;0;1
  490;C;br_GLRB2-_GLRO2-_1;3091;0;1
  491;C;br_GLRO2-_WFIE2-_1;3091;0;1
  492;C;br_GOVA1Q_PAIS1Q_1;3091;1;1
  493;C;br_GRMO2-_KINC2-_1;3091;1;1
  494;C;br_GRNA1-_HAWI1-_1;3091;0;1
  495;C;br_HAKB4-_MOFF4C_1;3091;1;0
  496;C;br_HAWI3-_PIBU3-_1;3091;0;1
  497;C;br_HELE1-_WIYH1-_1;3091;0;1
  498;C;br_HUER4-_KILS4-_1;3091;0;1
  499;C;br_HUER4-_KILS4T_1;3091;0;0
  500;C;br_HUNE4-_NEIL4Q_1;3091;0;0
  501;C;br_HUNE4-_NEIL4R_1;3091;0;0
  502;C;br_HUNF1Q_KILW1R_1;3091;0;1
  503;C;br_HUNF1R_SACO1R_1;3091;0;1
  504;C;br_HUNN2A_HUNN2C_1;3091;0;1
  505;C;br_HUNN2B_HUNN2D_1;3091;0;1
  506;C;br_KEOO1-_NECU1R_1;3091;0;1
  507;C;br_KIER1Q_WIYH1-_1;3091;1;0
  508;C;br_KIER1R_WIYH1-_1;3091;1;0
  509;C;br_KILS2-_KILT2Q_1;3091;1;1
  510;C;br_KILS2-_KILT2R_1;3091;1;1
  511;C;br_KILS4-_STHA4A_1;3091;0;1
  512;C;br_KILS4T_STHA4B_1;3091;0;1
  513;C;br_KINB2J_KINC2-_1;3091;0;1
  514;C;br_KINB2K_KINC2-_1;3091;0;1
  515;C;br_LAMB2-_PORD2R_1;3091;0;1
  516;C;br_LEVT1R_WFIE1B_1;3091;0;1
  517;C;br_LOAN2-_MOSM2-_1;3091;0;0
  518;C;br_LOAN2-_WFIE2-_1;3091;0;1
  519;C;br_MAHI3-_TRLO3-_1;3091;0;1
  520;C;br_MAYB1-_MAYT1T_1;3091;0;1
  521;C;br_MOSM2-_WFIE2-_1;3091;0;1
  522;C;br_NEIL1-_PAIS1Q_1;3091;1;1
  523;C;br_NEIL1-_PAIS1R_1;3091;0;1
  524;C;br_NEIL2-_WIYH2R_1;3091;0;1
  525;C;br_NNGA2-_NNGA2G_1;3091;0;0
  526;C;br_NNGB2-_NNGB2G_1;3091;0;0
  527;C;br_POOB2Q_SMEA2-_1;3091;0;1
  528;C;br_POOB2R_SMEA2-_1;3091;0;1
  529;C;br_REDH1-_WFIE1A_1;3091;0;1
  530;C;br_SMEA4Q_STHA4B_1;3091;0;1
  531;C;br_SMEA4Q_TORN4-_1;3091;1;1
  532;C;br_STIR1S_WFIE1A_1;3091;0;1
  533;C;br_STLE1-_WIYH1-_1;3091;0;1
  534;C;br_WFIB2-_WFIE2-_1;3091;0;1


$$ElmComp;FID(a:40);OP(a:1);loc_name(a:80);fold_id(p);outserv(i);typ_id(p)
  535;C;WECC_EMW_AYR-3-_W2;3091;0;
  536;C;WECC_EMW_BAGA3-_W2;3091;0;
  537;C;WECC_EMW_BAIN3-_W2;3091;0;
  538;C;WECC_EMW_BERW3-_W2;3091;0;
  539;C;WECC_EMW_BONN3-_W2;3091;0;
  540;C;WECC_EMW_BRAP3-_W2;3091;0;
  541;C;WECC_EMW_BROX3-_W2;3091;0;
  542;C;WECC_EMW_CAFA5-_W2;3091;0;
  543;C;WECC_EMW_CATY3-_W2;3091;0;
  544;C;WECC_EMW_CHAP3-_W2;3091;0;
  545;C;WECC_EMW_CHAS3A_W2;3091;0;
  546;C;WECC_EMW_CHAS3B_W2;3091;0;
  547;C;WECC_EMW_CLYM3A_W2;3091;0;
  548;C;WECC_EMW_CLYM3B_W2;3091;0;
  549;C;WECC_EMW_COAT3-_W2;3091;0;
  550;C;WECC_EMW_COCK3-_W2;3091;0;
  551;C;WECC_EMW_COYL3-_W2;3091;0;
  552;C;WECC_EMW_CROO3J_W2;3091;0;
  553;C;WECC_EMW_CROO3K_W2;3091;0;
  554;C;WECC_EMW_CUMB3-_W2;3091;0;
  555;C;WECC_EMW_CUPA3-_W2;3091;0;
  556;C;WECC_EMW_CURR5-_W2;3091;0;
  557;C;WECC_EMW_DALM3-_W2;3091;0;
  558;C;WECC_EMW_DEVM3-_W2;3091;0;
  559;C;WECC_EMW_DEVO3-_W2;3091;0;
  560;C;WECC_EMW_DEWP3-_W2;3091;0;
  561;C;WECC_EMW_DRCR3-_W2;3091;0;
  562;C;WECC_EMW_DRUM3-_W2;3091;0;
  563;C;WECC_EMW_DUMF3A_W2;3091;0;
  564;C;WECC_EMW_DUMF3B_W2;3091;0;
  565;C;WECC_EMW_DUMF3I_W2;3091;0;
  566;C;WECC_EMW_DUNB3A_W2;3091;0;
  567;C;WECC_EMW_DUNB3B_W2;3091;0;
  568;C;WECC_EMW_DUNF3-_W2;3091;0;
  569;C;WECC_EMW_EAST5-_W2;3091;0;
  570;C;WECC_EMW_ECCL3-_W2;3091;0;
  571;C;WECC_EMW_EERH3-_W2;3091;0;
  572;C;WECC_EMW_EKIL3A_W2;3091;0;
  573;C;WECC_EMW_EKIL3B_W2;3091;0;
  574;C;WECC_EMW_EKIS3A_W2;3091;0;
  575;C;WECC_EMW_EKIS3B_W2;3091;0;
  576;C;WECC_EMW_ELDE3-_W2;3091;0;
  577;C;WECC_EMW_ERSK3-_W2;3091;0;
  578;C;WECC_EMW_FINN3-_W2;3091;0;
  579;C;WECC_EMW_GALA3-_W2;3091;0;
  580;C;WECC_EMW_GIFF3A_W2;3091;0;
  581;C;WECC_EMW_GIFF3B_W2;3091;0;
  582;C;WECC_EMW_GLLE5-_W2;3091;0;
  583;C;WECC_EMW_GLLU3-_W2;3091;0;
  584;C;WECC_EMW_GLNI3-_W2;3091;0;
  585;C;WECC_EMW_GLRO3A_W2;3091;0;
  586;C;WECC_EMW_GLRO3B_W2;3091;0;
  587;C;WECC_EMW_GORG3-_W2;3091;0;
  588;C;WECC_EMW_GOVA3-_W2;3091;0;
  589;C;WECC_EMW_GRMO3A_W2;3091;0;
  590;C;WECC_EMW_GRMO3C_W2;3091;0;
  591;C;WECC_EMW_HAGR3-_W2;3091;0;
  592;C;WECC_EMW_HAWI3-_W2;3091;0;
  593;C;WECC_EMW_HELE3-_W2;3091;0;
  594;C;WECC_EMW_HUNF3-_W2;3091;0;
  595;C;WECC_EMW_INKE3-_W2;3091;0;
  596;C;WECC_EMW_JOHN3-_W2;3091;0;
  597;C;WECC_EMW_KAIM3-_W2;3091;0;
  598;C;WECC_EMW_KEOO5-_W2;3091;0;
  599;C;WECC_EMW_KIER3-_W2;3091;0;
  600;C;WECC_EMW_KILB3-_W2;3091;0;
  601;C;WECC_EMW_KILB5-_W2;3091;0;
  602;C;WECC_EMW_KILS3-_W2;3091;0;
  603;C;WECC_EMW_KILT3A_W2;3091;0;
  604;C;WECC_EMW_KILT3B_W2;3091;0;
  605;C;WECC_EMW_KILW3-_W2;3091;0;
  606;C;WECC_EMW_LEVE3-_W2;3091;0;
  607;C;WECC_EMW_LING3-_W2;3091;0;
  608;C;WECC_EMW_LINM3-_W2;3091;0;
  609;C;WECC_EMW_MAYB3-_W2;3091;0;
  610;C;WECC_EMW_NEAR3-_W2;3091;0;
  611;C;WECC_EMW_NETS3-_W2;3091;0;
  612;C;WECC_EMW_PAIS3-_W2;3091;0;
  613;C;WECC_EMW_PART3-_W2;3091;0;
  614;C;WECC_EMW_POOB3-_W2;3091;0;
  615;C;WECC_EMW_PORD3-_W2;3091;0;
  616;C;WECC_EMW_RAVE3A_W2;3091;0;
  617;C;WECC_EMW_RAVE3B_W2;3091;0;
  618;C;WECC_EMW_REDH3-_W2;3091;0;
  619;C;WECC_EMW_SACO3J_W2;3091;0;
  620;C;WECC_EMW_SACO3K_W2;3091;0;
  621;C;WECC_EMW_SANX3-_W2;3091;0;
  622;C;WECC_EMW_SHRU3A_W2;3091;0;
  623;C;WECC_EMW_SHRU3B_W2;3091;0;
  624;C;WECC_EMW_SIGH3A_W2;3091;0;
  625;C;WECC_EMW_SIGH3B_W2;3091;0;
  626;C;WECC_EMW_SPAV3-_W2;3091;0;
  627;C;WECC_EMW_STHA3-_W2;3091;0;
  628;C;WECC_EMW_STIR3-_W2;3091;0;
  629;C;WECC_EMW_STLE3S_W2;3091;0;
  630;C;WECC_EMW_TELR3-_W2;3091;0;
  631;C;WECC_EMW_TONG3-_W2;3091;0;
  632;C;WECC_EMW_TONG5-_W2;3091;0;
  633;C;WECC_EMW_WFIE3-_W2;3091;0;
  634;C;WECC_EMW_WGEO3-_W2;3091;0;
  635;C;WECC_EMW_WHHO3-_W2;3091;0;
  636;C;WECC_EMW_WHTL3-_W2;3091;0;
  637;C;WECC_EMW_WISH3-_W2;3091;0;
  638;C;WECC_WTG_AFTO0G_1;3091;0;
  639;C;WECC_WTG_AIKE0A_1;3091;0;
  640;C;WECC_WTG_AIKE0B_1;3091;0;
  641;C;WECC_WTG_AIKE0G_1;3091;0;
  642;C;WECC_WTG_AIRI0G_1;3091;0;
  643;C;WECC_WTG_ANDE0G_1;3091;0;
  644;C;WECC_WTG_AREC01_1;3091;0;
  645;C;WECC_WTG_AREC02_1;3091;0;
  646;C;WECC_WTG_ASVA0G_1;3091;0;
  647;C;WECC_WTG_AURO0G_1;3091;0;
  648;C;WECC_WTG_BLKS0G_1;3091;0;
  649;C;WECC_WTG_BLLX0G_1;3091;0;
  650;C;WECC_WTG_BROC0G_1;3091;0;
  651;C;WECC_WTG_CALD0G_1;3091;0;
  652;C;WECC_WTG_CHAP3-_1;3091;0;
  653;C;WECC_WTG_CLYN0A_1;3091;0;
  654;C;WECC_WTG_CLYN0B_1;3091;0;
  655;C;WECC_WTG_CLYN0C_1;3091;0;
  656;C;WECC_WTG_CLYN0D_1;3091;0;
  657;C;WECC_WTG_CLYS0A_1;3091;0;
  658;C;WECC_WTG_CLYS0B_1;3091;0;
  659;C;WECC_WTG_COYL3-_1;3091;0;
  660;C;WECC_WTG_CRDY0A_1;3091;0;
  661;C;WECC_WTG_CRDY0B_1;3091;0;
  662;C;WECC_WTG_CRYR01_1;3091;0;
  663;C;WECC_WTG_CRYR02_1;3091;0;
  664;C;WECC_WTG_CRYR0G_1;3091;0;
  665;C;WECC_WTG_CUMH0G_1;3091;0;
  666;C;WECC_WTG_DALQ0G_1;3091;0;
  667;C;WECC_WTG_DALS0G_1;3091;0;
  668;C;WECC_WTG_DESA0G_1;3091;0;
  669;C;WECC_WTG_DOWE0G_1;3091;0;
  670;C;WECC_WTG_DUNE0G_1;3091;0;
  671;C;WECC_WTG_DUNH0G_1;3091;0;
  672;C;WECC_WTG_EARB0G_1;3091;0;
  673;C;WECC_WTG_ENHI0G_1;3091;0;
  674;C;WECC_WTG_EWEH0G_1;3091;0;
  675;C;WECC_WTG_FALL0A_1;3091;0;
  676;C;WECC_WTG_FALL0B_1;3091;0;
  677;C;WECC_WTG_GAWH0G_1;3091;0;
  678;C;WECC_WTG_GLAP0G_1;3091;0;
  679;C;WECC_WTG_GLCH0G_1;3091;0;
  680;C;WECC_WTG_GRGR0G_1;3091;0;
  681;C;WECC_WTG_HAGH0G_1;3091;0;
  682;C;WECC_WTG_HAHA0G_1;3091;0;
  683;C;WECC_WTG_HARE0A_1;3091;0;
  684;C;WECC_WTG_HARE0B_1;3091;0;
  685;C;WECC_WTG_HARH0G_1;3091;0;
  686;C;WECC_WTG_HARR0G_1;3091;0;
  687;C;WECC_WTG_KEIH0G_1;3091;0;
  688;C;WECC_WTG_KENE0G_1;3091;0;
  689;C;WECC_WTG_KENN0G_1;3091;0;
  690;C;WECC_WTG_KHLL0G_1;3091;0;
  691;C;WECC_WTG_KILG0A_1;3091;0;
  692;C;WECC_WTG_KILG0B_1;3091;0;
  693;C;WECC_WTG_KILG0C_1;3091;0;
  694;C;WECC_WTG_KYPE0G_1;3091;0;
  695;C;WECC_WTG_LNGB0-_1;3091;0;
  696;C;WECC_WTG_LOPA0G_1;3091;0;
  697;C;WECC_WTG_MAHI0G_1;3091;0;
  698;C;WECC_WTG_MIDM0G_1;3091;0;
  699;C;WECC_WTG_MINN0G_1;3091;0;
  700;C;WECC_WTG_MINS0G_1;3091;0;
  701;C;WECC_WTG_NNGA6-_1;3091;0;
  702;C;WECC_WTG_NNGB6-_1;3091;0;
  703;C;WECC_WTG_NOKY0A_1;3091;0;
  704;C;WECC_WTG_NOKY0B_1;3091;0;
  705;C;WECC_WTG_PIBU0G_1;3091;0;
  706;C;WECC_WTG_POGB0G;3091;0;
  707;C;WECC_WTG_PRST0G_1;3091;0;
  708;C;WECC_WTG_SAKN0G_1;3091;0;
  709;C;WECC_WTG_SNED0G_1;3091;0;
  710;C;WECC_WTG_SNQR0G_1;3091;0;
  711;C;WECC_WTG_SOKY0G_1;3091;0;
  712;C;WECC_WTG_SOLW0G_1;3091;0;
  713;C;WECC_WTG_TODD0G_1;3091;0;
  714;C;WECC_WTG_TORM0G_1;3091;0;
  715;C;WECC_WTG_TRLO0G_1;3091;0;
  716;C;WECC_WTG_TWEN0G_1;3091;0;
  717;C;WECC_WTG_WHLL0G_1;3091;0;
  718;C;WECC_WTG_WLEE0A_1;3091;0;
  719;C;WECC_WTG_WLEE0B_1;3091;0;
  720;C;WECC_WTG_WLEE0C_1;3091;0;
  721;C;WECC_WTG_WLEX0A_1;3091;0;
  722;C;WECC_WTG_WLEX0B_1;3091;0;
  723;C;WECC_WTG_WLEX0C_1;3091;0;
  724;C;WECC_WTG_WNDR0G_1;3091;0;


$$ElmCoup;FID(a:40);OP(a:1);loc_name(a:80);fold_id(p);typ_id(p);on_off(i);aUsage(a:4);nphase(i);nneutral(i)
  725;C;brk_AREC3A_AREC3B_1;3091;;0;cbk;3;0
  726;C;brk_CHAS3A_CHAS3C_1;3091;;1;cbk;3;0
  727;C;brk_CHAS3B_CHAS3C_1;3091;;1;cbk;3;0
  728;C;brk_CLYM3A_CLYM3B_1;3091;;0;cbk;3;0
  729;C;brk_CURR1A_CURR1B_1;3091;;1;cbk;3;0
  730;C;brk_DUMF3A_DUMF3B_1;3091;;0;cbk;3;0
  731;C;brk_EAST5-_EAST5A_1;3091;;1;cbk;3;0
  732;C;brk_ECCL4A_ECCL4B_1;3091;;0;cbk;3;0
  733;C;brk_ECCL4A_ECCL4C_1;3091;;0;cbk;3;0
  734;C;brk_ECCL4B_ECCL4D_1;3091;;0;cbk;3;0
  735;C;brk_EKIL3A_EKISLB_1;3091;;0;cbk;3;0
  736;C;brk_EKIS3A_EKIS3B_1;3091;;0;cbk;3;0
  737;C;brk_GIFF3A_GIFF3B_1;3091;;0;cbk;3;0
  738;C;brk_GRNA4-_GRNA4C_1;3091;;0;cbk;3;0
  739;C;brk_HELE1Q_HELE1R_1;3091;;1;cbk;3;0
  740;C;brk_LOAN2-_LOAN2Q_1;3091;;1;cbk;3;0
  741;C;brk_LOAN2-_LOAN2R_1;3091;;1;cbk;3;0
  742;C;brk_MOFF4-_MOFF4C_1;3091;;0;cbk;3;0
  743;C;brk_MOSM1A_MOSM1B_1;3091;;1;cbk;3;0
  744;C;brk_NEIL4Q_NEIL4R_1;3091;;1;cbk;3;0
  745;C;brk_RAVE3S_RAVE3A_1;3091;;1;cbk;3;0
  746;C;brk_RAVE3S_RAVE3B_1;3091;;1;cbk;3;0
  747;C;brk_RAVE3T_RAVE3A_1;3091;;1;cbk;3;0
  748;C;brk_RAVE3T_RAVE3B_1;3091;;1;cbk;3;0
  749;C;brk_SHRU3A_SHRU3B_1;3091;;1;cbk;3;0
  750;C;brk_STHA2A_STHA2B_1;3091;;0;cbk;3;0
  751;C;brk_STHA4A_STHA4B_1;3091;;0;cbk;3;0
  752;C;brk_STLE1Q_STLE1R_1;3091;;1;cbk;3;0
  753;C;brk_TONG1-_TONG1Q_1;3091;;1;cbk;3;0
  754;C;brk_WIYH2-_WIYH2R_1;3091;;0;cbk;3;0


$$ElmDsl;FID(a:40);OP(a:1);loc_name(a:80);fold_id(p);typ_id(p);outserv(i)
  755;C;Protection;535;;1
  756;C;REEC_D Electrical Control Model;535;;0
  757;C;REGC_C Generator-Converter Model;535;;0
  758;C;WTGIBFFR_A Inertial-Base Fast-Frequency;535;;1
  759;C;WTGWGO_A Weak Grid Option Model;535;;1
  760;C;Protection;536;;1
  761;C;REEC_D Electrical Control Model;536;;0
  762;C;REGC_C Generator-Converter Model;536;;0
  763;C;WTGIBFFR_A Inertial-Base Fast-Frequency;536;;1
  764;C;WTGWGO_A Weak Grid Option Model;536;;1
  765;C;Protection;537;;1
  766;C;REEC_D Electrical Control Model;537;;0
  767;C;REGC_C Generator-Converter Model;537;;0
  768;C;WTGIBFFR_A Inertial-Base Fast-Frequency;537;;1
  769;C;WTGWGO_A Weak Grid Option Model;537;;1
  770;C;Protection;538;;1
  771;C;REEC_D Electrical Control Model;538;;0
  772;C;REGC_C Generator-Converter Model;538;;0
  773;C;WTGIBFFR_A Inertial-Base Fast-Frequency;538;;1
  774;C;WTGWGO_A Weak Grid Option Model;538;;1
  775;C;Protection;539;;1
  776;C;REEC_D Electrical Control Model;539;;0
  777;C;REGC_C Generator-Converter Model;539;;0
  778;C;WTGIBFFR_A Inertial-Base Fast-Frequency;539;;1
  779;C;WTGWGO_A Weak Grid Option Model;539;;1
  780;C;Protection;540;;1
  781;C;REEC_D Electrical Control Model;540;;0
  782;C;REGC_C Generator-Converter Model;540;;0
  783;C;WTGIBFFR_A Inertial-Base Fast-Frequency;540;;1
  784;C;WTGWGO_A Weak Grid Option Model;540;;1
  785;C;Protection;541;;1
  786;C;REEC_D Electrical Control Model;541;;0
  787;C;REGC_C Generator-Converter Model;541;;0
  788;C;WTGIBFFR_A Inertial-Base Fast-Frequency;541;;1
  789;C;WTGWGO_A Weak Grid Option Model;541;;1
  790;C;Protection;542;;1
  791;C;REEC_D Electrical Control Model;542;;0
  792;C;REGC_C Generator-Converter Model;542;;0
  793;C;WTGIBFFR_A Inertial-Base Fast-Frequency;542;;1
  794;C;WTGWGO_A Weak Grid Option Model;542;;1
  795;C;Protection;543;;1
  796;C;REEC_D Electrical Control Model;543;;0
  797;C;REGC_C Generator-Converter Model;543;;0
  798;C;WTGIBFFR_A Inertial-Base Fast-Frequency;543;;1
  799;C;WTGWGO_A Weak Grid Option Model;543;;1
  800;C;Protection;544;;1
  801;C;REEC_D Electrical Control Model;544;;0
  802;C;REGC_C Generator-Converter Model;544;;0
  803;C;WTGIBFFR_A Inertial-Base Fast-Frequency;544;;1
  804;C;WTGWGO_A Weak Grid Option Model;544;;1
  805;C;Protection;545;;1
  806;C;REEC_D Electrical Control Model;545;;0
  807;C;REGC_C Generator-Converter Model;545;;0
  808;C;WTGIBFFR_A Inertial-Base Fast-Frequency;545;;1
  809;C;WTGWGO_A Weak Grid Option Model;545;;1
  810;C;Protection;546;;1
  811;C;REEC_D Electrical Control Model;546;;0
  812;C;REGC_C Generator-Converter Model;546;;0
  813;C;WTGIBFFR_A Inertial-Base Fast-Frequency;546;;1
  814;C;WTGWGO_A Weak Grid Option Model;546;;1
  815;C;Protection;547;;1
  816;C;REEC_D Electrical Control Model;547;;0
  817;C;REGC_C Generator-Converter Model;547;;0
  818;C;WTGIBFFR_A Inertial-Base Fast-Frequency;547;;1
  819;C;WTGWGO_A Weak Grid Option Model;547;;1
  820;C;Protection;548;;1
  821;C;REEC_D Electrical Control Model;548;;0
  822;C;REGC_C Generator-Converter Model;548;;0
  823;C;WTGIBFFR_A Inertial-Base Fast-Frequency;548;;1
  824;C;WTGWGO_A Weak Grid Option Model;548;;1
  825;C;Protection;549;;1
  826;C;REEC_D Electrical Control Model;549;;0
  827;C;REGC_C Generator-Converter Model;549;;0
  828;C;WTGIBFFR_A Inertial-Base Fast-Frequency;549;;1
  829;C;WTGWGO_A Weak Grid Option Model;549;;1
  830;C;Protection;550;;1
  831;C;REEC_D Electrical Control Model;550;;0
  832;C;REGC_C Generator-Converter Model;550;;0
  833;C;WTGIBFFR_A Inertial-Base Fast-Frequency;550;;1
  834;C;WTGWGO_A Weak Grid Option Model;550;;1
  835;C;Protection;551;;1
  836;C;REEC_D Electrical Control Model;551;;0
  837;C;REGC_C Generator-Converter Model;551;;0
  838;C;WTGIBFFR_A Inertial-Base Fast-Frequency;551;;1
  839;C;WTGWGO_A Weak Grid Option Model;551;;1
  840;C;Protection;552;;1
  841;C;REEC_D Electrical Control Model;552;;0
  842;C;REGC_C Generator-Converter Model;552;;0
  843;C;WTGIBFFR_A Inertial-Base Fast-Frequency;552;;1
  844;C;WTGWGO_A Weak Grid Option Model;552;;1
  845;C;Protection;553;;1
  846;C;REEC_D Electrical Control Model;553;;0
  847;C;REGC_C Generator-Converter Model;553;;0
  848;C;WTGIBFFR_A Inertial-Base Fast-Frequency;553;;1
  849;C;WTGWGO_A Weak Grid Option Model;553;;1
  850;C;Protection;554;;1
  851;C;REEC_D Electrical Control Model;554;;0
  852;C;REGC_C Generator-Converter Model;554;;0
  853;C;WTGIBFFR_A Inertial-Base Fast-Frequency;554;;1
  854;C;WTGWGO_A Weak Grid Option Model;554;;1
  855;C;Protection;555;;1
  856;C;REEC_D Electrical Control Model;555;;0
  857;C;REGC_C Generator-Converter Model;555;;0
  858;C;WTGIBFFR_A Inertial-Base Fast-Frequency;555;;1
  859;C;WTGWGO_A Weak Grid Option Model;555;;1
  860;C;Protection;556;;1
  861;C;REEC_D Electrical Control Model;556;;0
  862;C;REGC_C Generator-Converter Model;556;;0
  863;C;WTGIBFFR_A Inertial-Base Fast-Frequency;556;;1
  864;C;WTGWGO_A Weak Grid Option Model;556;;1
  865;C;Protection;557;;1
  866;C;REEC_D Electrical Control Model;557;;0
  867;C;REGC_C Generator-Converter Model;557;;0
  868;C;WTGIBFFR_A Inertial-Base Fast-Frequency;557;;1
  869;C;WTGWGO_A Weak Grid Option Model;557;;1
  870;C;Protection;558;;1
  871;C;REEC_D Electrical Control Model;558;;0
  872;C;REGC_C Generator-Converter Model;558;;0
  873;C;WTGIBFFR_A Inertial-Base Fast-Frequency;558;;1
  874;C;WTGWGO_A Weak Grid Option Model;558;;1
  875;C;Protection;559;;1
  876;C;REEC_D Electrical Control Model;559;;0
  877;C;REGC_C Generator-Converter Model;559;;0
  878;C;WTGIBFFR_A Inertial-Base Fast-Frequency;559;;1
  879;C;WTGWGO_A Weak Grid Option Model;559;;1
  880;C;Protection;560;;1
  881;C;REEC_D Electrical Control Model;560;;0
  882;C;REGC_C Generator-Converter Model;560;;0
  883;C;WTGIBFFR_A Inertial-Base Fast-Frequency;560;;1
  884;C;WTGWGO_A Weak Grid Option Model;560;;1
  885;C;Protection;561;;1
  886;C;REEC_D Electrical Control Model;561;;0
  887;C;REGC_C Generator-Converter Model;561;;0
  888;C;WTGIBFFR_A Inertial-Base Fast-Frequency;561;;1
  889;C;WTGWGO_A Weak Grid Option Model;561;;1
  890;C;Protection;562;;1
  891;C;REEC_D Electrical Control Model;562;;0
  892;C;REGC_C Generator-Converter Model;562;;0
  893;C;WTGIBFFR_A Inertial-Base Fast-Frequency;562;;1
  894;C;WTGWGO_A Weak Grid Option Model;562;;1
  895;C;Protection;563;;1
  896;C;REEC_D Electrical Control Model;563;;0
  897;C;REGC_C Generator-Converter Model;563;;0
  898;C;WTGIBFFR_A Inertial-Base Fast-Frequency;563;;1
  899;C;WTGWGO_A Weak Grid Option Model;563;;1
  900;C;Protection;564;;1
  901;C;REEC_D Electrical Control Model;564;;0
  902;C;REGC_C Generator-Converter Model;564;;0
  903;C;WTGIBFFR_A Inertial-Base Fast-Frequency;564;;1
  904;C;WTGWGO_A Weak Grid Option Model;564;;1
  905;C;Protection;565;;1
  906;C;REEC_D Electrical Control Model;565;;0
  907;C;REGC_C Generator-Converter Model;565;;0
  908;C;WTGIBFFR_A Inertial-Base Fast-Frequency;565;;1
  909;C;WTGWGO_A Weak Grid Option Model;565;;1
  910;C;Protection;566;;1
  911;C;REEC_D Electrical Control Model;566;;0
  912;C;REGC_C Generator-Converter Model;566;;0
  913;C;WTGIBFFR_A Inertial-Base Fast-Frequency;566;;1
  914;C;WTGWGO_A Weak Grid Option Model;566;;1
  915;C;Protection;567;;1
  916;C;REEC_D Electrical Control Model;567;;0
  917;C;REGC_C Generator-Converter Model;567;;0
  918;C;WTGIBFFR_A Inertial-Base Fast-Frequency;567;;1
  919;C;WTGWGO_A Weak Grid Option Model;567;;1
  920;C;Protection;568;;1
  921;C;REEC_D Electrical Control Model;568;;0
  922;C;REGC_C Generator-Converter Model;568;;0
  923;C;WTGIBFFR_A Inertial-Base Fast-Frequency;568;;1
  924;C;WTGWGO_A Weak Grid Option Model;568;;1
  925;C;Protection;569;;1
  926;C;REEC_D Electrical Control Model;569;;0
  927;C;REGC_C Generator-Converter Model;569;;0
  928;C;WTGIBFFR_A Inertial-Base Fast-Frequency;569;;1
  929;C;WTGWGO_A Weak Grid Option Model;569;;1
  930;C;Protection;570;;1
  931;C;REEC_D Electrical Control Model;570;;0
  932;C;REGC_C Generator-Converter Model;570;;0
  933;C;WTGIBFFR_A Inertial-Base Fast-Frequency;570;;1
  934;C;WTGWGO_A Weak Grid Option Model;570;;1
  935;C;Protection;571;;1
  936;C;REEC_D Electrical Control Model;571;;0
  937;C;REGC_C Generator-Converter Model;571;;0
  938;C;WTGIBFFR_A Inertial-Base Fast-Frequency;571;;1
  939;C;WTGWGO_A Weak Grid Option Model;571;;1
  940;C;Protection;572;;1
  941;C;REEC_D Electrical Control Model;572;;0
  942;C;REGC_C Generator-Converter Model;572;;0
  943;C;WTGIBFFR_A Inertial-Base Fast-Frequency;572;;1
  944;C;WTGWGO_A Weak Grid Option Model;572;;1
  945;C;Protection;573;;1
  946;C;REEC_D Electrical Control Model;573;;0
  947;C;REGC_C Generator-Converter Model;573;;0
  948;C;WTGIBFFR_A Inertial-Base Fast-Frequency;573;;1
  949;C;WTGWGO_A Weak Grid Option Model;573;;1
  950;C;Protection;574;;1
  951;C;REEC_D Electrical Control Model;574;;0
  952;C;REGC_C Generator-Converter Model;574;;0
  953;C;WTGIBFFR_A Inertial-Base Fast-Frequency;574;;1
  954;C;WTGWGO_A Weak Grid Option Model;574;;1
...


$$ElmGenstat;FID(a:40);OP(a:1);loc_name(a:80);fold_id(p);outserv(i);sgn(r);cosn(r);cCategory(a);av_mode(a);mode_inp(a:6);pgini(r);qgini(r);sgini(r);cosgini(r);pf_recap(i);phtech(i);ngnum(i);ip_ctrl(i);usetp(r);phiini(r);Kpf(r);scale0(r);ddroop(r);usp_max(r);usp_min(r);cQ_min(r);cQ_max(r)
  1705;C;BES_CAMI3-_1;3091;0;52.58;0.95;Storage;constq;DEF;10;0;10;1;0;0;1;0;1;0;0;1;3;1.1;0.9;-16.3629;16.3629
  1706;C;BES_FERY3-_1;3091;0;52.6;0.95;Storage;constq;DEF;10;0;10;1;0;0;1;0;1;0;0;1;3;1.1;0.9;-16.36912;16.36912
  1707;C;BES_GLNI3-_1;3091;0;55.55556;0.9;Storage;vdroop;DEF;10;0;10;1;0;0;1;0;1.01;0;0;1;3;1.1;0.9;-32;32
  1708;C;BES_NESC1-_1;3091;0;167.2;0.95;Storage;vdroop;DEF;10;0;10;1;0;1;1;0;1.01;0;0;1;3;1.1;0.9;-106;106
  1709;C;BES_NETH3-_1;3091;0;60.5;0.95;Storage;vdroop;DEF;10;0;10;1;0;0;1;0;1;0;0;1;3;1.1;0.9;-33;33
  1710;C;BES_ROAR3-_1;3091;0;76.23;0.95;Storage;constq;DEF;10;0;10;1;0;0;1;0;1;0;0;1;3;1.1;0.9;-24.3936;24.3936
  1711;C;BES_SHLA3-_1;3091;0;46.8;0.95;Storage;constq;DEF;8;0;8;1;0;0;1;0;1;0;0;1;1;1.1;0.9;-13.2;13.2
  1712;C;BES_WLEE3A_1;3091;0;14.445;0.9;Storage;vdroop;DEF;10;0;10;1;0;0;1;0;1.01;0;0;1;3;1.1;0.9;-8;8
  1713;C;BES_WLEE3B_1;3091;0;17.78;0.9;Storage;vdroop;DEF;0;0;0;1;0;0;1;0;1.01;0;0;1;3;1.1;0.9;-10;10
  1714;C;BES_WLEE3C_1;3091;0;23.34;0.9;Storage;vdroop;DEF;0;0;0;1;0;0;1;0;1.01;0;0;1;3;1.1;0.9;-12;12
  1715;C;EMH_AYR-3-_H2;4819;0;100;1;Renewable Generation;constq;DEF;0;0;0;1;0;0;1;0;1;0;0;1;1;1.1;0.9;-0.099;0.099
  1716;C;EMH_BAGA3-_H2;4819;0;100;1;Renewable Generation;constq;DEF;0;0;0;1;0;0;1;0;1;0;0;1;1;1.1;0.9;-0.099;0.099
  1717;C;EMH_BAIN3-_H2;4819;0;100;1;Renewable Generation;constq;DEF;0;0;0;1;0;0;1;0;1;0;0;1;1;1.1;0.9;-0.099;0.099
  1718;C;EMH_BERW3-_H2;4819;0;100;1;Renewable Generation;constq;DEF;0;0;0;1;0;0;1;0;1;0;0;1;1;1.1;0.9;-0.099;0.099
  1719;C;EMH_BONN3-_H2;4819;0;100;1;Renewable Generation;constq;DEF;0.6;0;0.6;1;0;0;1;0;1;0;0;1;1;1.1;0.9;-0.099;0.099
  1720;C;EMH_BRAP3-_H2;4819;0;100;1;Renewable Generation;constq;DEF;0;0;0;1;0;0;1;0;1;0;0;1;1;1.1;0.9;-0.099;0.099
  1721;C;EMH_BROX3-_H2;4819;0;100;1;Renewable Generation;constq;DEF;0;0;0;1;0;0;1;0;1;0;0;1;1;1.1;0.9;-0.099;0.099
  1722;C;EMH_CAFA5-_H2;4819;0;100;1;Renewable Generation;constq;DEF;8.5;0;8.5;1;0;0;1;0;1;0;0;1;1;1.1;0.9;-0.099;0.099
  1723;C;EMH_CATY3-_H2;4819;0;100;1;Renewable Generation;constq;DEF;0;0;0;1;0;0;1;0;1;0;0;1;1;1.1;0.9;-0.099;0.099
  1724;C;EMH_CHAP3-_H2;4819;0;100;1;Renewable Generation;constq;DEF;0.4;0;0.4;1;0;0;1;0;1;0;0;1;1;1.1;0.9;-0.099;0.099
  1725;C;EMH_CHAS3A_H2;4819;0;100;1;Renewable Generation;constq;DEF;0;0;0;1;0;0;1;0;1;0;0;1;1;1.1;0.9;-0.099;0.099
  1726;C;EMH_CHAS3B_H2;4819;0;100;1;Renewable Generation;constq;DEF;0;0;0;1;0;0;1;0;1;0;0;1;1;1.1;0.9;-0.099;0.099
  1727;C;EMH_CLYM3A_H2;4819;0;100;1;Renewable Generation;constq;DEF;0;0;0;1;0;0;1;0;1;0;0;1;1;1.1;0.9;-0.099;0.099
  1728;C;EMH_CLYM3B_H2;4819;0;100;1;Renewable Generation;constq;DEF;0;0;0;1;0;0;1;0;1;0;0;1;1;1.1;0.9;-0.099;0.099
  1729;C;EMH_COAT3-_H2;4819;0;100;1;Renewable Generation;constq;DEF;0;0;0;1;0;0;1;0;1;0;0;1;1;1.1;0.9;-0.099;0.099
  1730;C;EMH_COCK3-_H2;4819;0;100;1;Renewable Generation;constq;DEF;0;0;0;1;0;0;1;0;1;0;0;1;1;1.1;0.9;-0.099;0.099
  1731;C;EMH_COYL3-_H2;4819;0;100;1;Renewable Generation;constq;DEF;1.6;0;1.6;1;0;0;1;0;1;0;0;1;1;1.1;0.9;-0.099;0.099
  1732;C;EMH_CROO3J_H2;4819;0;100;1;Renewable Generation;constq;DEF;0;0;0;1;0;0;1;0;1;0;0;1;1;1.1;0.9;-0.099;0.099
  1733;C;EMH_CROO3K_H2;4819;0;100;1;Renewable Generation;constq;DEF;0;0;0;1;0;0;1;0;1;0;0;1;1;1.1;0.9;-0.099;0.099
  1734;C;EMH_CUMB3-_H2;4819;0;100;1;Renewable Generation;constq;DEF;0;0;0;1;0;0;1;0;1;0;0;1;1;1.1;0.9;-0.099;0.099
  1735;C;EMH_CUPA3-_H2;4819;0;100;1;Renewable Generation;constq;DEF;0;0;0;1;0;0;1;0;1;0;0;1;1;1.1;0.9;-0.099;0.099
  1736;C;EMH_CURR5-_H2;4819;0;100;1;Renewable Generation;constq;DEF;0;0;0;1;0;0;1;0;1;0;0;1;1;1.1;0.9;-0.099;0.099
  1737;C;EMH_DALM3-_H2;4819;0;100;1;Renewable Generation;constq;DEF;0;0;0;1;0;0;1;0;1;0;0;1;1;1.1;0.9;-0.099;0.099
  1738;C;EMH_DEVM3-_H2;4819;0;100;1;Renewable Generation;constq;DEF;0;0;0;1;0;0;1;0;1;0;0;1;1;1.1;0.9;-0.099;0.099
  1739;C;EMH_DEVO3-_H2;4819;0;100;1;Renewable Generation;constq;DEF;0.8;0;0.8;1;0;0;1;0;1;0;0;1;1;1.1;0.9;-0.099;0.099
  1740;C;EMH_DEWP3-_H2;4819;0;100;1;Renewable Generation;constq;DEF;0;0;0;1;0;0;1;0;1;0;0;1;1;1.1;0.9;-0.099;0.099
  1741;C;EMH_DRCR3-_H2;4819;0;100;1;Renewable Generation;constq;DEF;0;0;0;1;0;0;1;0;1;0;0;1;1;1.1;0.9;-0.099;0.099
  1742;C;EMH_DRUM3-_H2;4819;0;100;1;Renewable Generation;constq;DEF;0;0;0;1;0;0;1;0;1;0;0;1;1;1.1;0.9;-0.099;0.099
  1743;C;EMH_DUMF3A_H2;4819;0;100;1;Renewable Generation;constq;DEF;0.2;0;0.2;1;0;0;1;0;1;0;0;1;1;1.1;0.9;-0.099;0.099
  1744;C;EMH_DUMF3B_H2;4819;0;100;1;Renewable Generation;constq;DEF;0.2;0;0.2;1;0;0;1;0;1;0;0;1;1;1.1;0.9;-0.099;0.099
  1745;C;EMH_DUMF3I_H2;4819;0;100;1;Renewable Generation;constq;DEF;0.2;0;0.2;1;0;0;1;0;1;0;0;1;1;1.1;0.9;-0.099;0.099
  1746;C;EMH_DUNB3A_H2;4819;0;100;1;Renewable Generation;constq;DEF;0;0;0;1;0;0;1;0;1;0;0;1;1;1.1;0.9;-0.099;0.099
  1747;C;EMH_DUNB3B_H2;4819;0;100;1;Renewable Generation;constq;DEF;0;0;0;1;0;0;1;0;1;0;0;1;1;1.1;0.9;-0.099;0.099
  1748;C;EMH_DUNF3-_H2;4819;0;100;1;Renewable Generation;constq;DEF;0;0;0;1;0;0;1;0;1;0;0;1;1;1.1;0.9;-0.099;0.099
  1749;C;EMH_EAST5-_H2;4819;0;100;1;Renewable Generation;constq;DEF;10;0;10;1;0;0;1;0;1;0;0;1;1;1.1;0.9;-0.099;0.099
  1750;C;EMH_ECCL3-_H2;4819;0;100;1;Renewable Generation;constq;DEF;0;0;0;1;0;0;1;0;1;0;0;1;1;1.1;0.9;-0.099;0.099
  1751;C;EMH_EERH3-_H2;4819;0;100;1;Renewable Generation;constq;DEF;0;0;0;1;0;0;1;0;1;0;0;1;1;1.1;0.9;-0.099;0.099
  1752;C;EMH_EKIL3A_H2;4819;0;100;1;Renewable Generation;constq;DEF;0.2;0;0.2;1;0;0;1;0;1;0;0;1;1;1.1;0.9;-0.099;0.099
  1753;C;EMH_EKIL3B_H2;4819;0;100;1;Renewable Generation;constq;DEF;0.2;0;0.2;1;0;0;1;0;1;0;0;1;1;1.1;0.9;-0.099;0.099
  1754;C;EMH_EKIS3A_H2;4819;0;100;1;Renewable Generation;constq;DEF;0;0;0;1;0;0;1;0;1;0;0;1;1;1.1;0.9;-0.099;0.099
  1755;C;EMH_EKIS3B_H2;4819;0;100;1;Renewable Generation;constq;DEF;0;0;0;1;0;0;1;0;1;0;0;1;1;1.1;0.9;-0.099;0.099
  1756;C;EMH_ELDE3-_H2;4819;0;100;1;Renewable Generation;constq;DEF;0;0;0;1;0;0;1;0;1;0;0;1;1;1.1;0.9;-0.099;0.099
  1757;C;EMH_ERSK3-_H2;4819;0;100;1;Renewable Generation;constq;DEF;0;0;0;1;0;0;1;0;1;0;0;1;1;1.1;0.9;-0.099;0.099
  1758;C;EMH_FINN3-_H2;4819;0;100;1;Renewable Generation;constq;DEF;0;0;0;1;0;0;1;0;1;0;0;1;1;1.1;0.9;-0.099;0.099
  1759;C;EMH_GALA3-_H2;4819;0;100;1;Renewable Generation;constq;DEF;0.3;0;0.3;1;0;0;1;0;1;0;0;1;1;1.1;0.9;-0.099;0.099
  1760;C;EMH_GIFF3A_H2;4819;0;100;1;Renewable Generation;constq;DEF;0;0;0;1;0;0;1;0;1;0;0;1;1;1.1;0.9;-0.099;0.099
  1761;C;EMH_GIFF3B_H2;4819;0;100;1;Renewable Generation;constq;DEF;0;0;0;1;0;0;1;0;1;0;0;1;1;1.1;0.9;-0.099;0.099
  1762;C;EMH_GLLE5-_H2;4819;0;100;1;Renewable Generation;constq;DEF;16.3;0;16.3;1;0;0;1;0;1;0;0;1;1;1.1;0.9;-0.099;0.099
  1763;C;EMH_GLLU3-_H2;4819;0;100;1;Renewable Generation;constq;DEF;0.2;0;0.2;1;0;0;1;0;1;0;0;1;1;1.1;0.9;-0.099;0.099
  1764;C;EMH_GLNI3-_H2;4819;0;100;1;Renewable Generation;constq;DEF;0;0;0;1;0;0;1;0;1;0;0;1;1;1.1;0.9;-0.099;0.099
  1765;C;EMH_GLRO3A_H2;4819;0;100;1;Renewable Generation;constq;DEF;0.3;0;0.3;1;0;0;1;0;1;0;0;1;1;1.1;0.9;-0.099;0.099
  1766;C;EMH_GLRO3B_H2;4819;0;100;1;Renewable Generation;constq;DEF;0.3;0;0.3;1;0;0;1;0;1;0;0;1;1;1.1;0.9;-0.099;0.099
  1767;C;EMH_GORG3-_H2;4819;0;100;1;Renewable Generation;constq;DEF;0;0;0;1;0;0;1;0;1;0;0;1;1;1.1;0.9;-0.099;0.099
  1768;C;EMH_GOVA3-_H2;4819;0;100;1;Renewable Generation;constq;DEF;0;0;0;1;0;0;1;0;1;0;0;1;1;1.1;0.9;-0.099;0.099
  1769;C;EMH_GRMO3A_H2;4819;0;100;1;Renewable Generation;constq;DEF;0;0;0;1;0;0;1;0;1;0;0;1;1;1.1;0.9;-0.099;0.099
  1770;C;EMH_GRMO3C_H2;4819;0;100;1;Renewable Generation;constq;DEF;0;0;0;1;0;0;1;0;1;0;0;1;1;1.1;0.9;-0.099;0.099
  1771;C;EMH_HAGR3-_H2;4819;0;100;1;Renewable Generation;constq;DEF;0;0;0;1;0;0;1;0;1;0;0;1;1;1.1;0.9;-0.099;0.099
  1772;C;EMH_HAWI3-_H2;4819;0;100;1;Renewable Generation;constq;DEF;0;0;0;1;0;0;1;0;1;0;0;1;1;1.1;0.9;-0.099;0.099
  1773;C;EMH_HELE3-_H2;4819;0;100;1;Renewable Generation;constq;DEF;0;0;0;1;0;0;1;0;1;0;0;1;1;1.1;0.9;-0.099;0.099
  1774;C;EMH_HUNF3-_H2;4819;0;100;1;Renewable Generation;constq;DEF;0;0;0;1;0;0;1;0;1;0;0;1;1;1.1;0.9;-0.099;0.099
  1775;C;EMH_INKE3-_H2;4819;0;100;1;Renewable Generation;constq;DEF;0;0;0;1;0;0;1;0;1;0;0;1;1;1.1;0.9;-0.099;0.099
  1776;C;EMH_JOHN3-_H2;4819;0;100;1;Renewable Generation;constq;DEF;0;0;0;1;0;0;1;0;1;0;0;1;1;1.1;0.9;-0.099;0.099
  1777;C;EMH_KAIM3-_H2;4819;0;100;1;Renewable Generation;constq;DEF;0.3;0;0.3;1;0;0;1;0;1;0;0;1;1;1.1;0.9;-0.099;0.099
  1778;C;EMH_KEOO5-_H2;4819;0;100;1;Renewable Generation;constq;DEF;17.8;0;17.8;1;0;0;1;0;1;0;0;1;1;1.1;0.9;-0.099;0.099
  1779;C;EMH_KIER3-_H2;4819;0;100;1;Renewable Generation;constq;DEF;0;0;0;1;0;0;1;0;1;0;0;1;1;1.1;0.9;-0.099;0.099
  1780;C;EMH_KILB3-_H2;4819;0;100;1;Renewable Generation;constq;DEF;0;0;0;1;0;0;1;0;1;0;0;1;1;1.1;0.9;-0.099;0.099
  1781;C;EMH_KILB5-_H2;4819;0;100;1;Renewable Generation;constq;DEF;0;0;0;1;0;0;1;0;1;0;0;1;1;1.1;0.9;-0.099;0.099
  1782;C;EMH_KILS3-_H2;4819;0;100;1;Renewable Generation;constq;DEF;0;0;0;1;0;0;1;0;1;0;0;1;1;1.1;0.9;-0.099;0.099
  1783;C;EMH_KILT3A_H2;4819;0;100;1;Renewable Generation;constq;DEF;0;0;0;1;0;0;1;0;1;0;0;1;1;1.1;0.9;-0.099;0.099
  1784;C;EMH_KILT3B_H2;4819;0;100;1;Renewable Generation;constq;DEF;0;0;0;1;0;0;1;0;1;0;0;1;1;1.1;0.9;-0.099;0.099
  1785;C;EMH_KILW3-_H2;4819;0;100;1;Renewable Generation;constq;DEF;0;0;0;1;0;0;1;0;1;0;0;1;1;1.1;0.9;-0.099;0.099
  1786;C;EMH_LEVE3-_H2;4819;0;100;1;Renewable Generation;constq;DEF;0;0;0;1;0;0;1;0;1;0;0;1;1;1.1;0.9;-0.099;0.099
  1787;C;EMH_LING3-_H2;4819;0;100;1;Renewable Generation;constq;DEF;0;0;0;1;0;0;1;0;1;0;0;1;1;1.1;0.9;-0.099;0.099
  1788;C;EMH_LINM3-_H2;4819;0;100;1;Renewable Generation;constq;DEF;14.7;0;14.7;1;0;0;1;0;1;0;0;1;1;1.1;0.9;-0.099;0.099
  1789;C;EMH_MAYB3-_H2;4819;0;100;1;Renewable Generation;constq;DEF;0.7;0;0.7;1;0;0;1;0;1;0;0;1;1;1.1;0.9;-0.099;0.099
  1790;C;EMH_NEAR3-_H2;4819;0;100;1;Renewable Generation;constq;DEF;0;0;0;1;0;0;1;0;1;0;0;1;1;1.1;0.9;-0.099;0.099
  1791;C;EMH_NETS3-_H2;4819;0;100;1;Renewable Generation;constq;DEF;0;0;0;1;0;0;1;0;1;0;0;1;1;1.1;0.9;-0.099;0.099
  1792;C;EMH_PAIS3-_H2;4819;0;100;1;Renewable Generation;constq;DEF;0;0;0;1;0;0;1;0;1;0;0;1;1;1.1;0.9;-0.099;0.099
  1793;C;EMH_PART3-_H2;4819;0;100;1;Renewable Generation;constq;DEF;0;0;0;1;0;0;1;0;1;0;0;1;1;1.1;0.9;-0.099;0.099
  1794;C;EMH_POOB3-_H2;4819;0;100;1;Renewable Generation;constq;DEF;0;0;0;1;0;0;1;0;1;0;0;1;1;1.1;0.9;-0.099;0.099
  1795;C;EMH_PORD3-_H2;4819;0;100;1;Renewable Generation;constq;DEF;0;0;0;1;0;0;1;0;1;0;0;1;1;1.1;0.9;-0.099;0.099
  1796;C;EMH_RAVE3A_H2;4819;0;100;1;Renewable Generation;constq;DEF;0;0;0;1;0;0;1;0;1;0;0;1;1;1.1;0.9;-0.099;0.099
  1797;C;EMH_RAVE3B_H2;4819;0;100;1;Renewable Generation;constq;DEF;0;0;0;1;0;0;1;0;1;0;0;1;1;1.1;0.9;-0.099;0.099
  1798;C;EMH_REDH3-_H2;4819;0;100;1;Renewable Generation;constq;DEF;0;0;0;1;0;0;1;0;1;0;0;1;1;1.1;0.9;-0.099;0.099
  1799;C;EMH_SACO3J_H2;4819;0;100;1;Renewable Generation;constq;DEF;0.8;0;0.8;1;0;0;1;0;1;0;0;1;1;1.1;0.9;-0.099;0.099
  1800;C;EMH_SACO3K_H2;4819;0;100;1;Renewable Generation;constq;DEF;0.8;0;0.8;1;0;0;1;0;1;0;0;1;1;1.1;0.9;-0.099;0.099
  1801;C;EMH_SANX3-_H2;4819;0;100;1;Renewable Generation;constq;DEF;0;0;0;1;0;0;1;0;1;0;0;1;1;1.1;0.9;-0.099;0.099
  1802;C;EMH_SHRU3A_H2;4819;0;100;1;Renewable Generation;constq;DEF;0;0;0;1;0;0;1;0;1;0;0;1;1;1.1;0.9;-0.099;0.099
  1803;C;EMH_SHRU3B_H2;4819;0;100;1;Renewable Generation;constq;DEF;0;0;0;1;0;0;1;0;1;0;0;1;1;1.1;0.9;-0.099;0.099
  1804;C;EMH_SIGH3A_H2;4819;0;100;1;Renewable Generation;constq;DEF;0.1;0;0.1;1;0;0;1;0;1;0;0;1;1;1.1;0.9;-0.099;0.099
  1805;C;EMH_SIGH3B_H2;4819;0;100;1;Renewable Generation;constq;DEF;0.1;0;0.1;1;0;0;1;0;1;0;0;1;1;1.1;0.9;-0.099;0.099
  1806;C;EMH_SPAV3-_H2;4819;0;100;1;Renewable Generation;constq;DEF;0;0;0;1;0;0;1;0;1;0;0;1;1;1.1;0.9;-0.099;0.099
  1807;C;EMH_STHA3-_H2;4819;0;100;1;Renewable Generation;constq;DEF;0.1;0;0.1;1;0;0;1;0;1;0;0;1;1;1.1;0.9;-0.099;0.099
  1808;C;EMH_STIR3-_H2;4819;0;100;1;Renewable Generation;constq;DEF;0.3;0;0.3;1;0;0;1;0;1;0;0;1;1;1.1;0.9;-0.099;0.099
  1809;C;EMH_STLE3S_H2;4819;0;100;1;Renewable Generation;constq;DEF;2.1;0;2.1;1;0;0;1;0;1;0;0;1;1;1.1;0.9;-0.099;0.099
  1810;C;EMH_TELR3-_H2;4819;0;100;1;Renewable Generation;constq;DEF;0;0;0;1;0;0;1;0;1;0;0;1;1;1.1;0.9;-0.099;0.099
  1811;C;EMH_TONG3-_H2;4819;0;100;1;Renewable Generation;constq;DEF;0.7;0;0.7;1;0;0;1;0;1;0;0;1;1;1.1;0.9;-0.099;0.099
  1812;C;EMH_TONG5-_H2;4819;0;100;1;Renewable Generation;constq;DEF;0.3;0;0.3;1;0;0;1;0;1;0;0;1;1;1.1;0.9;-0.099;0.099
  1813;C;EMH_WFIE3-_H2;4819;0;100;1;Renewable Generation;constq;DEF;0;0;0;1;0;0;1;0;1;0;0;1;1;1.1;0.9;-0.099;0.099
  1814;C;EMH_WGEO3-_H2;4819;0;100;1;Renewable Generation;constq;DEF;0;0;0;1;0;0;1;0;1;0;0;1;1;1.1;0.9;-0.099;0.099
  1815;C;EMH_WHHO3-_H2;4819;0;100;1;Renewable Generation;constq;DEF;0;0;0;1;0;0;1;0;1;0;0;1;1;1.1;0.9;-0.099;0.099
  1816;C;EMH_WHTL3-_H2;4819;0;100;1;Renewable Generation;constq;DEF;0;0;0;1;0;0;1;0;1;0;0;1;1;1.1;0.9;-0.099;0.099
  1817;C;EMH_WISH3-_H2;4819;0;100;1;Renewable Generation;constq;DEF;0;0;0;1;0;0;1;0;1;0;0;1;1;1.1;0.9;-0.099;0.099
  1818;C;EMO_AYR-3-_N2;4819;0;100;1;Renewable Generation;constq;DEF;0;0;0;1;0;0;1;0;1;0;0;1;1;1.1;0.9;-0.099;0.099
  1819;C;EMO_BAGA3-_N2;4819;0;100;1;Renewable Generation;constq;DEF;0;0;0;1;0;0;1;0;1;0;0;1;1;1.1;0.9;-0.099;0.099
  1820;C;EMO_BAIN3-_N2;4819;0;100;1;Renewable Generation;constq;DEF;17;0;17;1;0;0;1;0;1;0;0;1;1;1.1;0.9;-0.099;0.099
  1821;C;EMO_BERW3-_N2;4819;0;100;1;Renewable Generation;constq;DEF;0.3;0;0.3;1;0;0;1;0;1;0;0;1;1;1.1;0.9;-0.099;0.099
  1822;C;EMO_BONN3-_N2;4819;0;100;1;Renewable Generation;constq;DEF;7.7;0;7.7;1;0;0;1;0;1;0;0;1;1;1.1;0.9;-0.099;0.099
  1823;C;EMO_BRAP3-_N2;4819;0;100;1;Renewable Generation;constq;DEF;0;0;0;1;0;0;1;0;1;0;0;1;1;1.1;0.9;-0.099;0.099
  1824;C;EMO_BROX3-_N2;4819;0;100;1;Renewable Generation;constq;DEF;0.4;0;0.4;1;0;0;1;0;1;0;0;1;1;1.1;0.9;-0.099;0.099
  1825;C;EMO_CAFA5-_N2;4819;0;100;1;Renewable Generation;constq;DEF;0;0;0;1;0;0;1;0;1;0;0;1;1;1.1;0.9;-0.099;0.099
  1826;C;EMO_CATY3-_N2;4819;0;100;1;Renewable Generation;constq;DEF;1.4;0;1.4;1;0;0;1;0;1;0;0;1;1;1.1;0.9;-0.099;0.099
  1827;C;EMO_CHAP3-_N2;4819;0;100;1;Renewable Generation;constq;DEF;1.1;0;1.1;1;0;0;1;0;1;0;0;1;1;1.1;0.9;-0.099;0.099
  1828;C;EMO_CHAS3A_N2;4819;0;100;1;Renewable Generation;constq;DEF;0;0;0;1;0;0;1;0;1;0;0;1;1;1.1;0.9;-0.099;0.099
  1829;C;EMO_CHAS3B_N2;4819;0;100;1;Renewable Generation;constq;DEF;0;0;0;1;0;0;1;0;1;0;0;1;1;1.1;0.9;-0.099;0.099
  1830;C;EMO_CLYM3A_N2;4819;0;100;1;Renewable Generation;constq;DEF;4.8;0;4.8;1;0;0;1;0;1;0;0;1;1;1.1;0.9;-0.099;0.099
  1831;C;EMO_CLYM3B_N2;4819;0;100;1;Renewable Generation;constq;DEF;4.8;0;4.8;1;0;0;1;0;1;0;0;1;1;1.1;0.9;-0.099;0.099
  1832;C;EMO_COAT3-_N2;4819;0;100;1;Renewable Generation;constq;DEF;0;0;0;1;0;0;1;0;1;0;0;1;1;1.1;0.9;-0.099;0.099
  1833;C;EMO_COCK3-_N2;4819;0;100;1;Renewable Generation;constq;DEF;1.3;0;1.3;1;0;0;1;0;1;0;0;1;1;1.1;0.9;-0.099;0.099
  1834;C;EMO_COYL3-_N2;4819;0;100;1;Renewable Generation;constq;DEF;9.9;0;9.9;1;0;0;1;0;1;0;0;1;1;1.1;0.9;-0.099;0.099
  1835;C;EMO_CROO3J_N2;4819;0;100;1;Renewable Generation;constq;DEF;0;0;0;1;0;0;1;0;1;0;0;1;1;1.1;0.9;-0.099;0.099
  1836;C;EMO_CROO3K_N2;4819;0;100;1;Renewable Generation;constq;DEF;0;0;0;1;0;0;1;0;1;0;0;1;1;1.1;0.9;-0.099;0.099
  1837;C;EMO_CUMB3-_N2;4819;0;100;1;Renewable Generation;constq;DEF;27.1;0;27.1;1;0;0;1;0;1;0;0;1;1;1.1;0.9;-0.099;0.099
  1838;C;EMO_CUPA3-_N2;4819;0;100;1;Renewable Generation;constq;DEF;3.6;0;3.6;1;0;0;1;0;1;0;0;1;1;1.1;0.9;-0.099;0.099
  1839;C;EMO_CURR5-_N2;4819;0;100;1;Renewable Generation;constq;DEF;0;0;0;1;0;0;1;0;1;0;0;1;1;1.1;0.9;-0.099;0.099
  1840;C;EMO_DALM3-_N2;4819;0;100;1;Renewable Generation;constq;DEF;7.3;0;7.3;1;0;0;1;0;1;0;0;1;1;1.1;0.9;-0.099;0.099
  1841;C;EMO_DEVM3-_N2;4819;0;100;1;Renewable Generation;constq;DEF;6.2;0;6.2;1;0;0;1;0;1;0;0;1;1;1.1;0.9;-0.099;0.099
  1842;C;EMO_DEVO3-_N2;4819;0;100;1;Renewable Generation;constq;DEF;1;0;1;1;0;0;1;0;1;0;0;1;1;1.1;0.9;-0.099;0.099
  1843;C;EMO_DEWP3-_N2;4819;0;100;1;Renewable Generation;constq;DEF;0;0;0;1;0;0;1;0;1;0;0;1;1;1.1;0.9;-0.099;0.099
  1844;C;EMO_DRCR3-_N2;4819;0;100;1;Renewable Generation;constq;DEF;0;0;0;1;0;0;1;0;1;0;0;1;1;1.1;0.9;-0.099;0.099
  1845;C;EMO_DRUM3-_N2;4819;0;100;1;Renewable Generation;constq;DEF;0;0;0;1;0;0;1;0;1;0;0;1;1;1.1;0.9;-0.099;0.099
  1846;C;EMO_DUMF3A_N2;4819;0;100;1;Renewable Generation;constq;DEF;1.1;0;1.1;1;0;0;1;0;1;0;0;1;1;1.1;0.9;-0.099;0.099
  1847;C;EMO_DUMF3B_N2;4819;0;100;1;Renewable Generation;constq;DEF;1.1;0;1.1;1;0;0;1;0;1;0;0;1;1;1.1;0.9;-0.099;0.099
  1848;C;EMO_DUMF3I_N2;4819;0;100;1;Renewable Generation;constq;DEF;0.6;0;0.6;1;0;0;1;0;1;0;0;1;1;1.1;0.9;-0.099;0.099
  1849;C;EMO_DUNB3A_N2;4819;0;100;1;Renewable Generation;constq;DEF;0;0;0;1;0;0;1;0;1;0;0;1;1;1.1;0.9;-0.099;0.099
  1850;C;EMO_DUNB3B_N2;4819;0;100;1;Renewable Generation;constq;DEF;2.3;0;2.3;1;0;0;1;0;1;0;0;1;1;1.1;0.9;-0.099;0.099
  1851;C;EMO_DUNF3-_N2;4819;0;100;1;Renewable Generation;constq;DEF;13.2;0;13.2;1;0;0;1;0;1;0;0;1;1;1.1;0.9;-0.099;0.099
  1852;C;EMO_EAST5-_N2;4819;0;100;1;Renewable Generation;constq;DEF;0;0;0;1;0;0;1;0;1;0;0;1;1;1.1;0.9;-0.099;0.099
  1853;C;EMO_ECCL3-_N2;4819;0;100;1;Renewable Generation;constq;DEF;0.1;0;0.1;1;0;0;1;0;1;0;0;1;1;1.1;0.9;-0.099;0.099
  1854;C;EMO_EERH3-_N2;4819;0;100;1;Renewable Generation;constq;DEF;0;0;0;1;0;0;1;0;1;0;0;1;1;1.1;0.9;-0.099;0.099
  1855;C;EMO_EKIL3A_N2;4819;0;100;1;Renewable Generation;constq;DEF;0;0;0;1;0;0;1;0;1;0;0;1;1;1.1;0.9;-0.099;0.099
  1856;C;EMO_EKIL3B_N2;4819;0;100;1;Renewable Generation;constq;DEF;0;0;0;1;0;0;1;0;1;0;0;1;1;1.1;0.9;-0.099;0.099
  1857;C;EMO_EKIS3A_N2;4819;0;100;1;Renewable Generation;constq;DEF;4.5;0;4.5;1;0;0;1;0;1;0;0;1;1;1.1;0.9;-0.099;0.099
  1858;C;EMO_EKIS3B_N2;4819;0;100;1;Renewable Generation;constq;DEF;4.5;0;4.5;1;0;0;1;0;1;0;0;1;1;1.1;0.9;-0.099;0.099
  1859;C;EMO_ELDE3-_N2;4819;0;100;1;Renewable Generation;constq;DEF;0;0;0;1;0;0;1;0;1;0;0;1;1;1.1;0.9;-0.099;0.099
  1860;C;EMO_ERSK3-_N2;4819;0;100;1;Renewable Generation;constq;DEF;0;0;0;1;0;0;1;0;1;0;0;1;1;1.1;0.9;-0.099;0.099
  1861;C;EMO_FINN3-_N2;4819;0;100;1;Renewable Generation;constq;DEF;0;0;0;1;0;0;1;0;1;0;0;1;1;1.1;0.9;-0.099;0.099
  1862;C;EMO_GALA3-_N2;4819;0;100;1;Renewable Generation;constq;DEF;2;0;2;1;0;0;1;0;1;0;0;1;1;1.1;0.9;-0.099;0.099
  1863;C;EMO_GIFF3A_N2;4819;0;100;1;Renewable Generation;constq;DEF;0;0;0;1;0;0;1;0;1;0;0;1;1;1.1;0.9;-0.099;0.099
  1864;C;EMO_GIFF3B_N2;4819;0;100;1;Renewable Generation;constq;DEF;0;0;0;1;0;0;1;0;1;0;0;1;1;1.1;0.9;-0.099;0.099
  1865;C;EMO_GLLE5-_N2;4819;0;100;1;Renewable Generation;constq;DEF;0;0;0;1;0;0;1;0;1;0;0;1;1;1.1;0.9;-0.099;0.099
  1866;C;EMO_GLLU3-_N2;4819;0;100;1;Renewable Generation;constq;DEF;1.6;0;1.6;1;0;0;1;0;1;0;0;1;1;1.1;0.9;-0.099;0.099
  1867;C;EMO_GLNI3-_N2;4819;0;100;1;Renewable Generation;constq;DEF;0;0;0;1;0;0;1;0;1;0;0;1;1;1.1;0.9;-0.099;0.099
  1868;C;EMO_GLRO3A_N2;4819;0;100;1;Renewable Generation;constq;DEF;0;0;0;1;0;0;1;0;1;0;0;1;1;1.1;0.9;-0.099;0.099
  1869;C;EMO_GLRO3B_N2;4819;0;100;1;Renewable Generation;constq;DEF;0;0;0;1;0;0;1;0;1;0;0;1;1;1.1;0.9;-0.099;0.099
  1870;C;EMO_GORG3-_N2;4819;0;100;1;Renewable Generation;constq;DEF;0.5;0;0.5;1;0;0;1;0;1;0;0;1;1;1.1;0.9;-0.099;0.099
  1871;C;EMO_GOVA3-_N2;4819;0;100;1;Renewable Generation;constq;DEF;0;0;0;1;0;0;1;0;1;0;0;1;1;1.1;0.9;-0.099;0.099
  1872;C;EMO_GRMO3A_N2;4819;0;100;1;Renewable Generation;constq;DEF;12.2;0;12.2;1;0;0;1;0;1;0;0;1;1;1.1;0.9;-0.099;0.099
  1873;C;EMO_GRMO3C_N2;4819;0;100;1;Renewable Generation;constq;DEF;0;0;0;1;0;0;1;0;1;0;0;1;1;1.1;0.9;-0.099;0.099
  1874;C;EMO_HAGR3-_N2;4819;0;100;1;Renewable Generation;constq;DEF;0;0;0;1;0;0;1;0;1;0;0;1;1;1.1;0.9;-0.099;0.099
  1875;C;EMO_HAWI3-_N2;4819;0;100;1;Renewable Generation;constq;DEF;0.2;0;0.2;1;0;0;1;0;1;0;0;1;1;1.1;0.9;-0.099;0.099
  1876;C;EMO_HELE3-_N2;4819;0;100;1;Renewable Generation;constq;DEF;0;0;0;1;0;0;1;0;1;0;0;1;1;1.1;0.9;-0.099;0.099
  1877;C;EMO_HUNF3-_N2;4819;0;100;1;Renewable Generation;constq;DEF;0;0;0;1;0;0;1;0;1;0;0;1;1;1.1;0.9;-0.099;0.099
  1878;C;EMO_INKE3-_N2;4819;0;100;1;Renewable Generation;constq;DEF;0;0;0;1;0;0;1;0;1;0;0;1;1;1.1;0.9;-0.099;0.099
  1879;C;EMO_JOHN3-_N2;4819;0;100;1;Renewable Generation;constq;DEF;0;0;0;1;0;0;1;0;1;0;0;1;1;1.1;0.9;-0.099;0.099
  1880;C;EMO_KAIM3-_N2;4819;0;100;1;Renewable Generation;constq;DEF;2.6;0;2.6;1;0;0;1;0;1;0;0;1;1;1.1;0.9;-0.099;0.099
  1881;C;EMO_KEOO5-_N2;4819;0;100;1;Renewable Generation;constq;DEF;0;0;0;1;0;0;1;0;1;0;0;1;1;1.1;0.9;-0.099;0.099
  1882;C;EMO_KIER3-_N2;4819;0;100;1;Renewable Generation;constq;DEF;3.3;0;3.3;1;0;0;1;0;1;0;0;1;1;1.1;0.9;-0.099;0.099
  1883;C;EMO_KILB3-_N2;4819;0;100;1;Renewable Generation;constq;DEF;0;0;0;1;0;0;1;0;1;0;0;1;1;1.1;0.9;-0.099;0.099
  1884;C;EMO_KILB5-_N2;4819;0;100;1;Renewable Generation;constq;DEF;0;0;0;1;0;0;1;0;1;0;0;1;1;1.1;0.9;-0.099;0.099
  1885;C;EMO_KILS3-_N2;4819;0;100;1;Renewable Generation;constq;DEF;1.5;0;1.5;1;0;0;1;0;1;0;0;1;1;1.1;0.9;-0.099;0.099
  1886;C;EMO_KILT3A_N2;4819;0;100;1;Renewable Generation;constq;DEF;4;0;4;1;0;0;1;0;1;0;0;1;1;1.1;0.9;-0.099;0.099
  1887;C;EMO_KILT3B_N2;4819;0;100;1;Renewable Generation;constq;DEF;4;0;4;1;0;0;1;0;1;0;0;1;1;1.1;0.9;-0.099;0.099
  1888;C;EMO_KILW3-_N2;4819;0;100;1;Renewable Generation;constq;DEF;18.9;0;18.9;1;0;0;1;0;1;0;0;1;1;1.1;0.9;-0.099;0.099
  1889;C;EMO_LEVE3-_N2;4819;0;100;1;Renewable Generation;constq;DEF;16.1;0;16.1;1;0;0;1;0;1;0;0;1;1;1.1;0.9;-0.099;0.099
  1890;C;EMO_LING3-_N2;4819;0;100;1;Renewable Generation;constq;DEF;1;0;1;1;0;0;1;0;1;0;0;1;1;1.1;0.9;-0.099;0.099
  1891;C;EMO_LINM3-_N2;4819;0;100;1;Renewable Generation;constq;DEF;0;0;0;1;0;0;1;0;1;0;0;1;1;1.1;0.9;-0.099;0.099
  1892;C;EMO_MAYB3-_N2;4819;0;100;1;Renewable Generation;constq;DEF;14.7;0;14.7;1;0;0;1;0;1;0;0;1;1;1.1;0.9;-0.099;0.099
  1893;C;EMO_NEAR3-_N2;4819;0;100;1;Renewable Generation;constq;DEF;6.5;0;6.5;1;0;0;1;0;1;0;0;1;1;1.1;0.9;-0.099;0.099
  1894;C;EMO_NETS3-_N2;4819;0;100;1;Renewable Generation;constq;DEF;0;0;0;1;0;0;1;0;1;0;0;1;1;1.1;0.9;-0.099;0.099
  1895;C;EMO_PAIS3-_N2;4819;0;100;1;Renewable Generation;constq;DEF;1.4;0;1.4;1;0;0;1;0;1;0;0;1;1;1.1;0.9;-0.099;0.099
  1896;C;EMO_PART3-_N2;4819;0;100;1;Renewable Generation;constq;DEF;0;0;0;1;0;0;1;0;1;0;0;1;1;1.1;0.9;-0.099;0.099
  1897;C;EMO_POOB3-_N2;4819;0;100;1;Renewable Generation;constq;DEF;17.1;0;17.1;1;0;0;1;0;1;0;0;1;1;1.1;0.9;-0.099;0.099
  1898;C;EMO_PORD3-_N2;4819;0;100;1;Renewable Generation;constq;DEF;3.4;0;3.4;1;0;0;1;0;1;0;0;1;1;1.1;0.9;-0.099;0.099
  1899;C;EMO_RAVE3A_N2;4819;0;100;1;Renewable Generation;constq;DEF;17.7;0;17.7;1;0;0;1;0;1;0;0;1;1;1.1;0.9;-0.099;0.099
  1900;C;EMO_RAVE3B_N2;4819;0;100;1;Renewable Generation;constq;DEF;0;0;0;1;0;0;1;0;1;0;0;1;1;1.1;0.9;-0.099;0.099
  1901;C;EMO_REDH3-_N2;4819;0;100;1;Renewable Generation;constq;DEF;5.7;0;5.7;1;0;0;1;0;1;0;0;1;1;1.1;0.9;-0.099;0.099
  1902;C;EMO_SACO3J_N2;4819;0;100;1;Renewable Generation;constq;DEF;0.5;0;0.5;1;0;0;1;0;1;0;0;1;1;1.1;0.9;-0.099;0.099
  1903;C;EMO_SACO3K_N2;4819;0;100;1;Renewable Generation;constq;DEF;2.5;0;2.5;1;0;0;1;0;1;0;0;1;1;1.1;0.9;-0.099;0.099
  1904;C;EMO_SANX3-_N2;4819;0;100;1;Renewable Generation;constq;DEF;0;0;0;1;0;0;1;0;1;0;0;1;1;1.1;0.9;-0.099;0.099
...


$$ElmLne;FID(a:40);OP(a:1);loc_name(a:80);fold_id(p);typ_id(p);dline(r);fline(r);GPScoords:MATRIX(a);nlnum(i);inAir(i)
  2320;C;lne_AIRI00_AIRI3-;384;16133;0.771;1;;1;0
  2321;C;lne_AIRI00_NETS3-;384;16339;15.531;1;;1;0
  2322;C;lne_AREC1-_MAHI1-_1;385;16309;7.615;1;;1;0
  2323;C;lne_AREC1-_MAHI1-_2;385;16085;1.613;1;;1;0
  2324;C;lne_AREC3-_GLAP3A_1;386;16132;5.931;1;;1;0
  2325;C;lne_GLAP3-_GLAP3A_1;386;16339;10.79;1;;1;0
  2326;C;lne_AURO00_AURO3-;387;16133;2.56;1;;1;0
  2327;C;lne_AURO00_LINM3-;387;16339;11.2;1;;1;0
  2328;C;lne_BAGA1Q_BONN1-_1;388;;15.48;1;;1;0
  2329;C;lne_BAGA1Q_BONN1-_2;388;;2.87;1;;1;0
  2330;C;lne_BAGA1Q_DRCR1Q_1;389;;4.71;1;;1;0
  2331;C;lne_BAGA1Q_DRCR1Q_2;389;16077;3.39;1;;1;0
  2332;C;lne_BAGA1R_BONN1-_1;390;;15.48;1;;1;0
  2333;C;lne_BAGA1R_BONN1-_2;390;;2.87;1;;1;0
  2334;C;lne_BAGA1R_DRCR1R_1;391;;4.71;1;;1;0
  2335;C;lne_BAGA1R_DRCR1R_2;391;16077;3.38;1;;1;0
  2336;C;lne_BAIN1Q_BONN1-_1;392;;7.02;1;;1;0
  2337;C;lne_BAIN1Q_BONN1-_2;392;16081;0.079999;1;;1;0
  2338;C;lne_BAIN1R_BONN1-_1;393;;7.02;1;;1;0
  2339;C;lne_BAIN1R_BONN1-_2;393;16081;0.280000;1;;1;0
  2340;C;lne_BERW1Q_ECCL1-_1;394;;21.54;1;;1;0
  2341;C;lne_BERW1Q_ECCL1-_2;394;16074;0.31;1;;1;0
  2342;C;lne_BERW1R_ECCL1-_1;395;;21.54;1;;1;0
  2343;C;lne_BERW1R_ECCL1-_2;395;16074;0.27;1;;1;0
  2344;C;lne_BLAH1-_GLGL1Q_1;396;16103;0.435;1;;1;0
  2345;C;lne_BLAH1-_GLGL1Q_2;396;;12.6;1;;1;0
  2346;C;lne_BLAH1-_GLGL1R_1;397;16103;0.44;1;;1;0
  2347;C;lne_BLAH1-_GLGL1R_2;397;;12.6;1;;1;0
  2348;C;lne_BLCW1-_MARG1-_1;398;;1.8;1;;1;0
  2349;C;lne_KEOO1Q_MARG1Q_1;398;16088;0.9;1;;1;0
  2350;C;lne_KEOO1Q_NECU1Q_1;398;;24.25;1;;1;0
  2351;C;lne_MARG1Q_MARG1-_1;398;16311;10.1;1;;1;0
  2352;C;lne_BLKL1-_WISH1-_1;399;16079;6.13;1;;1;0
  2353;C;lne_BLKL1-_WISH1-_2;399;16305;5.33;1;;1;0
  2354;C;lne_BLLX1-_LINM1Q_1;400;16306;12.85;1;;1;0
  2355;C;lne_BLLX1-_LINM1Q_2;400;16102;5.24;1;;1;0
  2356;C;lne_BONB2J_ZW052_1;401;;17.302;1;;1;0
  2357;C;lne_ZW052_DENN2-_1;401;;2.592;1;;1;0
  2358;C;lne_BONB4-_ZW052_1;402;;17.302;1;;1;0
  2359;C;lne_ZW052_DENN4-_1;402;;2.592;1;;1;0
  2360;C;Lne_BONN1-_CN117_1;403;16143;1e-06;1;;1;0
  2361;C;lne_CN101A_DENN1-_1;403;16102;0.3;1;;2;0
  2362;C;lne_CN117_CN101A_1;403;;4.04;1;;1;0
  2363;C;lne_CN117_CN101A_2;403;;4.04;1;;1;0
  2364;C;lne_AB13_STIR1S_1;404;16089;13.05;1;;1;0
  2365;C;lne_BONN1-_AB13_1;404;;3.3;1;;1;0
  2366;C;lne_AB13_STIR1T_1;405;16089;13.05;1;;1;0
  2367;C;lne_BONN1-_AB13_1;405;;3.3;1;;1;0
  2368;C;lne_BONN2A_ZG001_1;406;;3.812;1;;1;0
  2369;C;lne_ZG001_DENN2-_1;406;16111;0.55;1;;1;0
  2370;C;lne_BONN2B_ZG001_1;407;;3.812;1;;1;0
  2371;C;lne_ZG001_DENN2-_2;407;16111;0.46;1;;1;0
  2372;C;lne_BOWB31_KAIMY6_1;408;16160;5.38;1;;1;0
  2373;C;lne_KAIM3-_KAIMX9_1;408;16223;11.23;1;;1;0
  2374;C;lne_KAIMX9_KAIMY6_1;408;16225;4.42;1;;1;0
  2375;C;lne_BOWB32_KAIMY7_1;409;16161;5.38;1;;1;0
  2376;C;lne_KAIM3-_KAIMX8_1;409;16222;11.23;1;;1;0
  2377;C;lne_KAIMX8_KAIMY7_1;409;16224;4.42;1;;1;0
  2378;C;lne_BRAP1-_BZ001A_1;410;16092;0.2;1;;1;0
  2379;C;lne_BZ001A_BZ001B_1;410;16100;5.1;1;;1;0
  2380;C;lne_BZ001B_BZ015_1;410;16097;0.1;1;;1;0
  2381;C;lne_BZ015_ERSK1Q_1;410;;3.17;1;;1;0
  2382;C;lne_BRAP1-_BZ014_1;411;16092;0.1;1;;1;0
  2383;C;lne_BZ002A_BZ002B;411;16100;0.84;1;;1;0
  2384;C;lne_BZ002B_BZ002C_1;411;16085;1.25;1;;1;0
  2385;C;lne_BZ002C_BZ002D_1;411;16100;3.5;1;;1;0
  2386;C;lne_BZ002D_BZ002E_1;411;16093;0.44;1;;1;0
  2387;C;lne_BZ002E_BZ014_1;411;16097;0.1;1;;1;0
  2388;C;lne_BZ014_BZ015_1;411;;0.25;1;;1;0
  2389;C;lne_BZ015_ERSK1R_1;411;;3.2;1;;1;0
  2390;C;lne_BRAE1G_BRAP1-_1;412;16166;2.1;1;;1;0
  2391;C;lne_BRAE1G_GOVA1R_1;412;16167;4.03;1;;1;0
  2392;C;lne_BRAP1-_YB041A_1;413;16150;2.1;1;;1;0
  2393;C;lne_PAIS1R_YB026A_1;413;16238;0.09;1;;1;0
  2394;C;lne_YB041A_YB026A_1;413;;4.52;1;;1;0
  2395;C;lne_BUSB2-_EKIS2R_1;414;;9.34;1;;1;0
  2396;C;lne_EKIS2R_STHA2A_1;414;;0.2135;1;;1;0
  2397;C;lne_EKIS2R_STHA2A_2;414;;5.5865;1;;1;0
  2398;C;lne_CCSS1-_CCSS1B_1;415;16088;0.7;1;;1;0
  2399;C;lne_CCSS1B_GAWH1Q_1;415;16088;1.9;1;;1;0
  2400;C;lne_BR001-_CHAP1-_1;416;16084;0.125;1;;1;0
  2401;C;lne_BR001-_DUMF1-_1;416;;26.9;1;;1;0
  2402;C;lne_BR001-_DUMF1-_2;417;;26.9;1;;1;0
  2403;C;lne_CHAP1-_BR001-_1;417;16084;0.18;1;;1;0
  2404;C;lne_BV001A_ECCF1J_1;418;;6.569;1;;1;0
  2405;C;lne_CHAP1-_BV001A_1;418;16084;0.23;1;;1;0
  2406;C;lne_BV001B_ECCF1K_1;419;;6.569;1;;1;0
  2407;C;lne_CHAP1-_BV001B_1;419;16084;0.185;1;;1;0
  2408;C;lne_AL048A_GRNA1-_1;420;16101;0.35;1;;1;0
  2409;C;lne_CHAP1-_AL048A_1;420;;12.83;1;;1;0
  2410;C;lne_AL048B_GRNA1-_1;421;16101;0.3;1;;1;0
  2411;C;lne_CHAP1-_AL048B_1;421;;12.83;1;;1;0
  2412;C;lne_CHAP3-_SOLW00-_1;422;16134;1.3;1;;1;0
  2413;C;lne_SOLW00-_SOLW3-_1;422;16339;14;1;;1;0
  2414;C;lne_CLYM2-_DALM2R_1;423;;4.21;1;;1;0
  2415;C;lne_CLYM2-_YF001-_1;423;16178;0.093;1;;1;0
...